405
21.95738129 21.12850000 25.92135000
Ge    5.28223000    3.87446000   10.46471000     -0.241108   -0.12412700   -0.22450600
Ge    6.00940000    2.25524000   23.04859000     -0.260339    1.56212900    0.21808500
Ge    7.59496000    7.36033000    5.50699000      0.889508    0.32433900    0.03974000
Ge    4.13297000    5.62764000   24.27991000      0.755061    0.17463600   -0.62704200
Ge    5.97081000   16.40766000    2.40413000      0.146375   -1.01121400    0.38394500
Ge    6.57346000   10.80702000   24.46073000      0.351350   -0.16481300    0.28716600
Ge    9.62865000   17.47119000    2.21855000      0.002729   -0.05029000    0.46736800
Ge    9.16257000   12.28156000   21.54467000      0.697287   -1.37159200   -0.84074900
Ge    5.53409000   19.70384000    6.65048000      1.836589   -1.27731800    0.20689700
Ge    6.83259000   21.07196000   23.11696000      0.478156   -1.34484100    0.14137500
Ge   12.40725000    1.86795000    7.91545000      0.404305   -0.21417900    0.20672300
Ge   14.86667000    5.15954000   21.96213000     -0.443278   -0.17859300   -0.26615700
Ge   17.21643000    7.84303000    8.34569000     -0.333747   -0.03201700    0.16532300
Ge   12.76984000    8.92121000   23.53813000     -0.230875    0.22885800   -1.16203100
Ge   18.51254000   14.42840000    7.51490000     -0.596431   -0.92454700   -0.22862600
Ge   15.57351000   15.02296000   25.37887000      0.486680    0.05864000   -0.30495900
Ge   13.92448000   18.15426000    5.13447000      0.666981    1.18488000   -0.59191400
Ge   14.08519000   15.29668000   22.40106000      0.015858    0.08281800    0.10706000
Ge   14.13890000   19.99929000    8.64312000      0.969735   -0.18336500   -0.10122900
Ge   13.60110000    0.60268000   23.18299000      0.327973   -0.33805100    0.17658600
Ge    0.47803000    8.67748000    4.57680000     -0.369177    0.11135100    0.86193600
Ge    1.44909000    3.73826000   25.30969000     -0.288610   -1.98316300    0.24842000
Ge   20.86646000   11.49838000    4.12557000      0.576064    1.67338800    1.02739300
Ge   21.89166000    7.32327000   22.99683000      0.438336    0.22389200   -0.27458900
Ge    1.81426000   13.26536000    6.39540000      0.452068   -0.23359700    0.42844500
Ge    1.91512000   11.99544000   22.92589000     -0.297356   -1.34587900   -0.65999900
Ge    3.38566000   18.80974000    4.70797000     -0.096709    0.20379200   -0.38394500
Ge   21.43732000   15.70216000   25.82715000     -0.726974    2.26684400    0.72635300
Ge    0.12401000    1.49875000   10.22967000      1.436408    0.40887100   -0.66954400
Ge   20.84848000    0.92400000   25.88062000     -0.359586    0.32175200    0.20897700
Ge    3.30973000    3.05062000    5.55531000     -0.335753    0.46725700   -0.10570700
Ge    3.15941000    1.63450000   23.66241000     -0.164243   -0.99512800   -0.80262500
Ge    2.81559000    5.67132000    4.93969000      0.259254    0.03462200   -0.18911600
Ge    3.21518000    6.17363000   21.56319000     -0.284499    1.18410300    0.48115200
Ge    3.31549000   10.33935000    8.97149000      0.443147   -0.15104800   -0.86406100
Ge    4.10277000    9.83514000   25.44787000     -0.858516    1.46612300   -0.22552200
Ge    3.17352000   17.04582000    2.10218000      0.203379    0.84059400    0.46201500
Ge    1.80788000   15.00181000   19.60040000      0.367494    0.18777000   -1.09118100
Ge    2.83489000   18.98665000    8.38300000      0.801974    0.78530600   -0.90045400
Ge   21.87192000   19.18677000   22.04554000      1.323002   -0.05614200    2.43540200
Ge    8.99296000    1.66826000    4.31430000     -0.074448    0.33848600   -0.66675200
Ge   12.42397000    5.68468000   24.89455000      1.125558   -0.78017900    0.16663100
Ge   14.14022000    5.13277000    9.47698000      0.108897   -0.64942900   -0.46232400
Ge   11.35384000    5.99786000   21.76499000      0.188694    0.40061800    0.55376900
Ge   12.14152000    9.84332000    6.60958000     -1.736704   -0.36637600   -0.26742400
Ge   11.90780000   11.02062000   21.79708000     -0.096307   -0.38684600    0.13472600
Ge   10.24801000   14.51180000    3.83078000      0.071067    0.28587200    0.07358700
Ge   10.40082000   14.33270000   22.17716000      0.701398    0.63062700    0.13670500
Ge   11.87674000   17.51085000    4.12694000     -1.332717   -0.25189600   -1.33419400
Ge   11.30331000   20.29027000   24.88332000     -0.191721   -0.20863200    0.02262300
Ge   16.56397000    1.67431000   10.59341000      0.064260    0.04026000    0.12411200
Ge   18.03393000    2.87727000   24.76650000      0.053316   -0.70011900   -0.16965600
Ge   17.82035000    8.98681000    4.87229000     -0.002994    1.19507700   -0.37522900
Ge   18.69669000    5.35390000   25.74787000     -1.224649   -0.58512700   -0.11101600
Ge   18.47401000   11.97217000    5.76987000     -0.305452   -0.10935900   -0.26270800
Ge   18.24082000    8.78550000   22.57697000     -0.304944    0.08685000    0.01723800
Ge   19.58976000   16.23858000    5.80049000     -0.217723   -0.02016200   -0.10688500
Ge   18.42948000   11.04035000   23.99058000     -0.527777   -0.57476200    0.53431300
Ge   19.48865000   18.28340000    7.38581000      0.359006    0.34139800    0.33870400
Ge   17.26871000   17.80959000   24.86576000     -0.869057   -0.73539700   -0.66965400
Ge    5.48690000    0.80538000    8.97179000      0.538287    0.33864900    2.09642800
Ge    8.13191000    8.83605000   12.39516000      0.146685   -0.08055500    0.45022400
Ge    8.03718000   14.43590000   11.88884000     -0.064311   -0.27929100   -0.16266000
Ge    6.24223000   17.68917000    9.33370000     -0.914119   -0.27464900   -0.56814300
Ge    6.69550000   20.00904000   13.02406000      0.606559    0.29768300    0.17941100
Ge   15.34516000    4.64151000   13.00889000      0.411728   -0.59278500    0.42370800
Ge   14.30262000   10.84770000    9.45912000      0.531725   -1.20557000    0.25947000
Ge   15.13050000   13.92679000   11.13803000      0.287300   -0.62472500    0.19978600
Ge   15.18929000   19.65864000   11.09212000     -0.110734    0.14395900    0.13173800
Ge   15.72963000    1.29462000   13.17457000      0.359308    0.26642300   -0.23243900
Ge   21.46412000    2.88742000   13.15473000     -0.097901    0.40908300    0.05835300
Ge    0.11400000    6.53706000   11.13096000      0.356562    0.03618000   -0.34283000
Ge    0.32631000    9.51992000   11.42283000      0.411286    0.47547600    1.27037000
Ge    1.77319000   17.65011000   10.02443000     -0.863674   -0.82481600    1.28965300
Ge    2.95308000    4.17610000   16.03133000     -0.405530   -0.29552100   -1.22783500
Ge    3.87293000    6.40828000   11.18162000     -0.361204    0.09965600   -1.00061900
Ge    2.09099000    6.72638000    9.15081000      0.145677    0.45891300    0.01257600
Ge    4.58969000   11.57973000   12.01718000     -0.412062   -0.09388100   -0.16912100
Ge    5.37499000   14.57338000   12.45192000      0.785285   -0.39946000    0.98407900
Ge    2.26341000   17.05051000   12.53780000      1.271564   -0.61111500    0.10557600
Ge   10.32839000    2.08129000   11.53861000      0.770733    0.10941700   -0.29833500
Ge   10.88315000    4.63682000   10.09028000     -0.453120   -0.24994500    0.30646000
Ge   10.61149000   12.71443000   12.51313000      1.009803   -0.47770900   -0.10971600
Ge   11.51916000   14.46001000   10.81647000     -0.075404    0.69732100    0.27943800
Ge   10.60604000   18.42990000    9.41016000      0.376992   -0.27869800   -0.16861200
Ge   19.76812000    0.95138000   10.85373000     -1.177790    0.75742400    0.55548700
Ge   19.22538000    6.58704000    9.74836000      0.377133    0.45771500   -0.00955000
Ge   18.58166000    9.69383000   10.28684000     -0.256527    0.20950600    0.08344700
Ge   17.97344000   13.28624000   10.35241000     -0.130351   -0.56732200   -0.01153000
Ge   20.12670000   17.83158000   11.80378000      0.441066   -0.50903000    0.34739100
Sb    3.91498000   19.83777000   13.91301000     -0.691384    0.07126400   -0.67136100
Sb    9.39669000    5.33344000   14.56771000      0.252092   -0.01381400    0.38153600
Sb    5.49056000   11.64662000   14.61966000      0.125923   -0.04324500    0.52855300
Sb    8.02765000   17.01282000   14.99687000      0.704538   -0.38411200   -0.27375100
Sb    7.30697000    1.31013000   14.96822000     -0.376760   -0.57527800   -0.04080400
Sb   10.07452000    2.29071000   15.08422000     -0.264193    0.13686400   -1.35844200
Sb   15.77951000    8.15506000   17.89348000     -1.324110   -0.77428300   -1.94355200
Sb   13.76038000    9.25616000   13.11047000     -0.178123    0.36992300   -0.01398000
Sb   15.47625000   16.37545000   16.62713000     -0.563734   -0.34812800    0.78503700
Sb   14.39797000   18.91637000   18.85817000      0.000527    0.12417200   -0.07762700
Sb   21.80253000    4.93914000   15.25899000     -0.063695   -0.42778700    0.94207800
Sb   21.82808000    8.13927000   16.13713000     -1.009884   -0.15070000    0.51582200
Sb   21.35861000   10.53183000   14.32886000     -0.071385   -0.54021600   -0.24950900
Sb    0.38626000   14.32812000   15.91892000     -0.035146   -0.19023500   -0.86304700
Sb    1.05888000    0.80371000   16.48520000     -0.153483   -0.04047600    0.38691900
Sb    4.63819000    2.45612000   13.81548000     -0.656685    0.11131800   -0.41397500
Sb    2.59892000    8.74601000   16.11287000      0.039467   -0.79830500   -0.59129900
Sb    4.16208000   14.04965000   17.48212000     -0.281251    0.24294600    0.03344400
Sb    4.05689000   16.77336000   16.03369000     -0.516072   -0.22663000    0.69408500
Sb    4.67667000   21.06293000   16.24406000     -0.722368    1.10609600    1.37380400
Sb    7.67254000    1.95801000   12.16137000     -0.327617    1.32037000    0.10118500
Sb   10.95860000    7.68820000   12.73510000     -1.126792    0.39811400    0.63909000
Sb   10.34069000   12.01031000   15.40574000     -0.226758   -0.12541600   -0.04637300
Sb   11.45015000   17.54164000   15.67323000     -0.592107   -0.52247700    0.13736800
Sb   11.08913000   20.89007000   13.91249000     -0.205230   -0.42707700   -0.49575000
Sb   18.09600000    4.74897000   17.63481000     -0.298179   -0.25678200   -0.08343300
Sb   17.34571000    8.41621000   13.92687000      0.724616    0.89010500   -0.50743200
Sb   18.16817000   13.43185000   14.23743000      0.385746   -0.16705200    0.11420800
Sb   17.60682000   18.07613000   16.04941000      0.766884   -0.10124900   -0.29066200
Sb   17.64904000   20.93228000   14.56482000     -0.924784   -0.19652200    0.38609800
Sb    0.41960000    0.80902000    2.69331000     -1.157206    0.31614900   -0.56473200
Sb    1.12106000    1.63800000   19.55324000      0.332383   -0.14592500   -0.76355500
Sb    1.53408000    6.92316000    2.73832000      0.264074   -1.36324200   -0.19577100
Sb   20.16445000    3.54293000   20.98269000     -0.549896   -0.45732800   -0.64243300
Sb   18.71005000   13.31835000    2.92882000      0.364500    0.32544500    0.48265100
Sb    1.49377000   11.67022000   17.31621000      0.124138    0.12828600   -1.44483800
Sb    1.31514000   14.75238000    1.72489000     -1.128299   -0.42550200    1.44681200
Sb    0.23911000   14.52505000   21.92983000     -1.015362    0.10185900   -0.87075000
Sb    0.65353000   17.92570000    1.39163000     -0.161627    0.40445800   -0.48734400
Sb    3.82703000   19.08101000   18.50918000      0.099956    0.01828500    0.03524000
Sb    5.89718000    6.12962000    7.11120000     -0.633884    0.12811500    1.48947600
Sb    7.26735000    4.75947000   18.65535000      0.184774   -0.69995300    0.26578700
Sb    5.53807000   11.38140000    5.05846000     -1.623685    0.84544600   -1.01593000
Sb    9.94132000    3.71689000   17.45583000     -0.497513    0.69699100    0.57359900
Sb    9.98588000    6.25215000   24.48850000     -1.435411    1.04432100   -0.77514400
Sb    8.35685000    9.58658000   19.24136000     -0.150816   -1.40682700    0.28590800
Sb   11.32709000   15.52411000    1.08931000      0.502906   -0.49508100   -0.03163600
Sb    9.72974000   15.00899000   19.25949000     -1.022680    0.22941900    1.71449300
Sb    6.51340000   19.68663000    4.13960000     -0.168685   -0.51903700   -0.18408100
Sb    8.60122000   17.95161000   18.37396000     -0.991513   -0.49183500    0.34476700
Sb   15.97054000    1.79877000    2.52527000      0.461725   -1.09927700    0.92299000
Sb   14.99131000    1.96873000   19.42867000      0.105433    0.41911100    0.23244000
Sb   16.61388000    6.25296000    1.64818000     -0.106282   -0.16115700   -0.26355300
Sb   17.15322000    5.50828000   20.30359000     -0.660856    0.02322700   -0.30856600
Sb   16.19188000   10.24476000    2.91128000      1.356184    0.99645200   -0.68465200
Sb   17.19717000   12.92305000   17.76529000     -0.068611   -0.04487800    0.11567300
Sb   16.20719000   17.17534000    4.01510000     -0.092241   -0.47832400   -1.03008700
Sb   19.21196000   15.36945000   20.47532000     -0.291032    0.12216700    0.70698800
Sb   15.18358000    0.12678000    6.38039000     -0.439881   -0.04432300   -0.28056900
Sb   17.46055000   18.60928000   18.94462000     -0.877759    0.08342400    0.22131400
Sb    5.74889000    4.21903000    2.16369000      0.254708   -0.05054300   -0.08766300
Sb    5.08666000    7.66796000   19.95816000      0.041237    0.31587900   -0.02338700
Sb    4.54991000   13.95288000    2.70864000      0.632544   -0.52357800    0.29064100
Sb    6.15041000    6.91589000   16.80730000     -0.171076    0.42786500    1.27854500
Sb    8.92031000   15.87803000   25.05048000      0.137711    0.53712300    0.20692600
Sb    5.09388000   13.50460000   20.62645000      0.239868   -0.06555800   -1.01903300
Sb    9.68632000   13.06045000   24.87147000      0.270929   -1.34612400    0.22734700
Sb    6.45490000   15.97183000   19.35176000     -0.567705    0.07487500    0.76180300
Sb    3.60562000   19.36647000   25.59395000      0.190891   -0.50059500    0.63239200
Sb    6.87709000    1.15267000   19.08581000     -2.200604   -0.82269300   -1.98372200
Sb    8.57384000    3.35877000    0.61064000     -0.152480   -0.29660200    1.02995400
Sb   13.42539000    5.01229000   19.20739000      0.290935   -0.77657100    0.93920900
Sb   14.26662000    3.76024000    1.82798000     -0.723829    1.47232000   -0.63002700
Sb   13.22579000    9.45135000   19.15299000      0.713652   -0.31668700    0.86944200
Sb    9.76141000   10.30040000   23.64231000     -0.143187    0.19703200   -0.19250100
Sb   12.93698000   12.97680000   17.09653000      0.136680    0.62922500    0.39584000
Sb   11.98436000   12.29756000    0.73957000      0.139232   -0.07605100   -0.61074600
Sb   11.98511000   16.77073000   18.92534000      0.961724   -0.01663800    0.64550200
Sb    5.99208000    1.26924000    3.07920000      0.383990   -0.13169200    0.24035800
Sb   12.39180000    0.60855000   19.48648000      0.641335   -0.07306200   -1.28737400
Sb   19.63794000    2.45790000    2.83208000      0.727705   -0.56921400   -1.51384900
Sb   20.36849000    0.16990000   19.49764000      0.079146    1.15494500   -0.06350800
Sb   14.00678000    8.14658000   25.69914000      0.311792   -0.69671900    1.56445100
Sb   20.01399000    6.29438000   20.10647000      0.324809    0.70648500   -0.57785100
Sb    0.18864000   11.80508000    1.15139000     -0.302765   -0.18870700    0.03152900
Sb   18.38854000   11.73647000   21.14683000     -0.131652    0.00685000   -0.14513500
Sb   18.67718000   15.53799000    0.35985000     -0.401843    0.25545600    0.01609900
Sb   20.18989000   17.65157000   19.00313000      0.327817   -0.28588700   -0.58915800
Sb   20.78317000   20.09649000    4.18823000      0.552950   -0.36156300    0.52623200
Sb   19.35057000   19.35934000   21.51597000     -0.226892   -0.02560600   -0.81322600
Te    8.02323000    4.46613000    8.74372000     -0.176422    0.30700100    0.32583000
Te    4.51208000    3.83067000   21.29894000      0.963618   -0.28929300   -0.41813600
Te    4.50558000    8.64392000    5.84331000     -0.042521   -0.60032200    0.64198300
Te    5.73037000    7.96632000   25.14081000      0.861658   -1.52480200    0.40320400
Te    4.46927000   12.51402000    7.36575000     -0.491016    0.35840500    1.02540400
Te    4.00920000   12.76038000   24.32641000      1.037428   -2.26336200    0.99265300
Te    4.61742000   17.25766000    6.95144000     -0.462306   -0.39892600   -0.01461300
Te    7.84908000   16.53867000   22.03466000     -0.977028   -1.37016300   -0.41257100
Te    4.30630000    0.67459000    6.78351000     -2.055430    1.44588600   -1.28306600
Te    2.04235000   16.88575000   24.44730000     -0.518733    0.77643100    0.11898300
Te   12.16261000    4.54812000    7.62803000     -0.230383    0.68023100    0.21209600
Te   11.10542000    2.20644000    2.15374000     -0.403031    0.67060600    0.68795200
Te   12.63211000    8.29117000    8.72225000      1.090643    0.07401300   -0.24194400
Te   10.83100000    8.23122000   20.39993000     -0.276142    0.22775700    0.57427000
Te   14.42457000   10.97151000    6.28685000      1.040473    0.07605500    1.16962600
Te   13.04246000   12.92969000   23.51046000      0.145250    0.16096200    0.75791200
Te    9.98418000   17.65410000    6.03721000      0.573127   -0.87013400    0.13745800
Te   12.67800000   17.28207000   24.29024000     -0.312318   -0.83143000    0.42677300
Te   11.73840000   20.35986000    6.63880000      0.248798   -1.96389900    0.92514700
Te   12.92523000    1.32417000    0.20728000      0.194784   -0.54737400   -0.18649600
Te   19.68560000    6.33708000    6.36679000      0.047535   -0.57266500    0.67989000
Te   20.84473000    3.85286000    0.57352000      0.709522   -0.38958600   -0.12117900
Te   20.06794000    9.24726000    6.50894000     -0.881935    0.53206300   -1.36278900
Te   17.69622000    8.76230000    0.52732000     -0.561881   -0.08382700    0.03836000
Te   20.67627000   13.66554000    5.92578000      0.255858   -0.60270400    0.26349600
Te   21.05181000   10.24594000   24.69166000      0.055707   -0.12019100   -0.08757200
Te   18.58281000   16.40509000    9.18950000      0.928213    1.17265000    0.22262000
Te   18.08201000   18.55602000    1.27822000      0.141220   -0.03786100    2.20581400
Te   20.62665000    1.92768000    5.49251000      1.276060    0.25334500    1.37580500
Te   17.12903000    0.31821000    0.44410000     -0.153680    0.60932200   -0.41944700
Te    0.70418000    6.26750000    6.56096000      0.650131    0.43707000   -0.46703000
Te    1.50594000    0.23006000   25.36623000      0.053637   -0.10007200   -0.06606100
Te    1.15242000   10.47364000    6.83973000      0.310900    0.21699100    0.61591600
Te    1.78614000    6.16787000   25.27292000     -0.496108    1.93101600    0.28567800
Te    1.64052000   11.79980000    3.89875000     -0.157965    0.64169500   -0.33972200
Te    2.55672000    9.17593000   23.25526000     -0.182976    0.04204900   -0.54761100
Te    3.28671000   15.02631000    4.77508000     -0.690478    1.25645600    1.10821800
Te    0.38234000   13.72391000   24.66247000      1.079674   -2.27238500    0.17029200
Te   20.94963000   19.88588000    9.37235000      0.525655    0.04538000   -0.88943100
Te   17.88428000    0.20396000   22.83425000     -0.004989    0.04172900    1.18433300
Te    7.77443000    2.31287000    6.66873000     -0.160401   -0.16360400    0.64205300
Te    8.80747000    0.74142000   25.32076000      0.097635   -0.85610700   -0.52240400
Te    7.72677000    8.49678000    3.09048000      0.098534    0.25854900   -0.31879300
Te   10.80542000    2.83971000   24.54164000     -0.208215    1.19698800    0.00136200
Te    7.76019000   10.30095000    5.85145000      2.382742   -1.22849800    0.68368100
Te    6.65675000    7.42401000   22.36502000      0.294089    0.20938200   -0.21957400
Te    8.36361000   13.23112000    5.58018000     -0.177519    0.54720000   -0.36493600
Te    7.05912000   12.97646000   22.78915000     -0.463082    1.27767700    0.73606600
Te    8.32025000   19.30629000    7.45798000     -1.046502    0.72067200    0.44770500
Te    8.71252000   18.86084000   24.37503000      0.432513    0.33829500    0.27973400
Te   13.95316000    2.38508000   10.43385000      0.044499    0.38450100   -0.18832600
Te   15.28069000    3.07107000   24.78752000      0.014699    0.29843500    0.55456600
Te   15.32371000    3.50037000    6.14619000     -0.660926   -0.24504100   -0.06470100
Te   15.92223000    5.88741000   24.43344000     -0.046399    0.21330700    0.09391500
Te   16.92711000   11.65875000    8.29198000      0.234953   -0.56056000    0.64787600
Te   15.23586000   10.31493000   24.51115000     -0.022334    0.85350400   -0.01130200
Te   13.00036000   15.10775000    4.78070000     -0.406044    0.56256200    0.60492000
Te   14.40357000   15.01581000    1.84782000     -0.086897    0.35853200    0.16935100
Te   14.57082000   17.53770000    7.57218000     -0.449363    0.63162000   -0.19515700
Te   14.46292000   19.20993000   25.34651000      0.609715    0.10105000   -0.15239300
Te    3.35695000    4.55200000    8.22130000      0.837215   -0.86286200    0.13051000
Te    4.36619000    3.01898000   25.52999000      0.726078    0.61420400    0.45289000
Te    3.39343000    8.90636000   12.37654000     -0.451462   -0.05302700   -0.23488000
Te   20.40760000    7.21836000    0.32785000      0.696394    1.02376100    0.06717100
Te    2.03875000   11.83834000   10.79345000      0.096240    0.70603700    0.25073400
Te    1.80035000    9.24220000    0.77420000     -0.600904    0.21041200   -0.00109900
Te    0.04363000   16.70681000    7.15991000      0.371899    0.15800300    0.58841600
Te    6.18690000   16.85217000   24.34655000     -1.055220    0.14449800    0.41581400
Te   20.21861000    0.36704000   13.72834000     -0.015198    0.11664100   -0.45538900
Te   19.57482000   19.61423000   24.97182000      0.562754   -0.13149000   -0.45127900
Te    8.78915000    7.72427000    9.94165000      0.128624   -0.21724300   -0.64357900
Te    5.81385000    0.16911000    0.21969000      0.013878    0.63815300   -0.32186800
Te   10.01282000   11.39830000    8.20292000      0.628978   -0.36679700   -0.08265700
Te    7.38675000    4.61635000   24.29671000     -0.269304   -0.26269000   -0.42582300
Te    9.60487000   14.30286000    8.70630000     -1.205416   -0.83404600    0.48447700
Te    8.61264000   11.04019000    1.27381000      0.691702   -0.32756100   -0.28209300
Te    7.60309000   16.41813000    4.56879000     -0.069421    0.13673200    0.42735400
Te   11.45091000    9.14221000    0.91487000     -0.428747    1.16829300   -0.08561900
Te    9.74782000    1.47657000    8.55732000      0.349616    0.03150400    0.88616500
Te    4.31662000   19.43780000   22.75424000      0.428287   -1.11158200    0.71581400
Te   16.88390000    4.99777000    9.67035000     -0.276244    0.06733300    0.14502000
Te   17.38909000    6.40408000    4.78109000     -1.107142    0.22752700   -0.54361000
Te   15.73140000    8.24477000   10.98843000      0.620160    0.60132000   -0.33931200
Te   17.48399000   12.86992000    0.38662000     -0.958925   -0.29084800    0.10708900
Te   20.63786000   11.70170000   10.27618000     -0.686292    0.27234700    0.11045400
Te   11.81953000    6.27660000    1.60256000      0.508466   -0.69407900   -0.08683800
Te   15.65517000   16.07117000    9.56999000      0.025240   -0.29250800    1.06262800
Te   14.45588000   19.88477000    2.39001000      0.499367    0.24162200    0.35868700
Te   18.34147000   19.78454000   10.85214000     -1.251690   -0.68271100    0.10925600
Te   18.14995000    0.58988000    4.71985000     -0.887169   -0.63763500   -0.56269400
Te    0.96771000    1.94817000    7.40035000      0.122953    0.10611500    0.14993900
Te    5.32110000    7.84009000    9.35453000     -0.228267    0.52830200    0.39111100
Te    6.21955000   11.14842000   10.11082000      0.526486    0.02665800   -0.30712300
Te    4.60988000   15.37420000   10.24096000     -0.637545    0.63413800   -1.64119600
Te    4.61878000   19.50870000   10.58987000     -0.134749    0.51552300   -0.65895200
Te   12.73725000    2.19818000   13.63525000      0.341944    0.21526200   -0.57584900
Te   13.43938000    6.20760000   11.82496000     -0.946179   -0.19738700   -0.45517800
Te   13.23495000   13.25852000    9.09039000      0.662716   -0.38139400    0.19210000
Te   11.91444000   15.50228000    7.99566000      0.468748    1.67565100   -0.86410900
Te   12.92469000   17.27210000   11.33104000     -0.036301   -0.15328200   -0.28114900
Te   19.01497000    3.37481000    8.15782000      0.025941   -0.77364000   -0.68867000
Te   21.56630000    4.39388000    8.98717000      0.491888   -0.14971300    0.57792400
Te   21.33724000    8.85603000    9.01132000      0.441425   -0.46470900    0.14321200
Te    0.87287000   14.42095000    8.78354000      0.067621   -0.09551700   -0.09713500
Te   20.36144000   16.82145000   14.60987000      0.073288    0.29081000   -0.15553000
Te    3.08301000    1.84497000   10.65189000      0.218982    0.09018400    0.06351800
Te    1.34540000    5.03024000   13.00711000      1.018019    0.27807200   -0.94504400
Te    2.25068000   11.21009000   14.44820000      0.409358   -0.31658300   -0.53891200
Te    3.00707000   14.30130000   13.79780000     -0.344547    0.86182200    0.79428700
Te    1.90711000    0.94680000   13.50964000      0.879172    0.98235600    0.53897600
Te    7.82076000   20.90548000   10.58272000      0.314146   -0.97626900   -0.40537000
Te    8.09592000    5.95376000   12.17973000     -0.625921   -0.78421600   -0.18759500
Te    8.26801000   11.55014000   13.08540000     -0.973239    0.29103000   -0.05892600
Te    9.99809000   15.11111000   13.71677000      0.095103   -0.05729700   -0.85415000
Te    8.43615000   16.89852000   10.46440000      0.396412   -0.53288900    0.39543800
Te   17.93284000    3.30118000   14.04797000     -0.369693   -0.10610100   -0.24412600
Te   15.42778000    6.85129000   14.92665000     -1.220544   -1.13751800    0.19335400
Te   17.06472000   11.30978000   12.55132000      0.362753    0.25331100   -0.48633700
Te   18.03541000   15.67353000   12.22880000      0.251551   -0.55989300    0.14549000
Te   16.61911000   17.90211000   13.30248000     -0.281624    0.83059300   -0.47214300
Te    4.65633000    5.76203000   13.54391000      0.459405   -0.33102900    0.54522900
Te    5.90362000    8.47057000   14.47516000     -0.255926    0.38286700   -1.27986200
Te    7.05762000   14.39841000   17.14491000     -0.657192    0.28089300   -2.21697900
Te    5.57794000   17.31015000   13.39053000      0.094771   -1.03997400   -0.70049000
Te    0.40261000   19.91727000   12.13729000     -0.399925   -0.70664600   -1.95729800
Te   12.35054000    4.83534000   15.12093000      0.256601    0.48817300    0.10959900
Te   11.51442000    9.97677000   11.05444000      0.134931    0.57478100    0.07510500
Te   13.46167000   12.26428000   13.19301000     -0.507363   -0.62172100   -0.50291800
Te   14.63457000   15.28785000   13.71432000     -1.379241    2.35592300   -1.92003200
Te   12.18019000   20.60189000   10.25800000     -0.617685    0.19801100    0.95282400
Te   19.55649000    4.07519000   11.44767000     -0.093822   -0.83233500    1.01947800
Te   20.11550000    7.51296000   12.73180000      0.352211    0.54789200   -0.83464000
Te   20.81240000   13.17062000   13.10236000      0.401885    0.03882200   -0.29850300
Te    0.31723000   15.54827000   11.58298000     -0.987753    0.21168500   -0.31824600
Te   20.17778000    2.76575000   17.37443000     -0.058887    0.04376500    0.03997900
Te    2.46009000    3.57668000    2.68253000     -0.313004    0.34533100    0.16689700
Te    1.71902000    3.37639000   22.17772000     -0.006209    0.30258400    0.56067100
Te    4.70676000    6.79278000    2.28882000     -0.441911    0.63620100    0.17499700
Te    1.12916000    7.71436000   20.04263000     -0.355254   -0.62916700    0.44395300
Te    3.62475000   15.04934000    0.25591000      0.959293    1.18361800   -0.43259800
Te    2.75774000   11.39440000   19.74446000     -0.092029   -0.23964400    1.24833800
Te    6.54955000   18.73061000    1.27400000      0.388951   -0.34586500   -0.59385600
Te    2.31262000   17.14824000   21.12147000      0.472858    0.72909000   -0.28675300
Te    1.21082000   20.41582000    6.34012000     -0.164880   -0.61420200   -0.18978200
Te    4.03467000    0.36221000   21.03473000     -0.188782    0.77142200   -0.77119900
Te    9.95694000    7.08197000    7.22727000     -0.417748    0.15381100   -0.82270000
Te   10.80130000    3.87028000   20.16453000      0.654236   -0.59835600   -0.64534700
Te    8.86259000    6.19977000    1.36390000     -0.477070    0.44701300    0.37052400
Te    9.35472000    6.58825000   17.57109000      0.235763    0.66301600   -0.09003400
Te   11.32386000   11.97229000    3.59575000     -1.895860   -0.97411000   -0.37019200
Te   11.08080000   11.26475000   18.55656000     -0.573026    0.05985900    0.46642000
Te   11.61358000   19.50231000    1.72151000     -0.355838   -0.21547200   -0.08351300
Te   10.13631000   17.80778000   21.40269000      1.143028    1.08576400   -0.34347700
Te    8.97406000   20.42394000    2.79746000      0.128453    0.13900000    0.37117500
Te   11.22855000    0.16789000   21.88097000     -0.952786   -0.36871100    1.35877000
Te   13.31540000    5.05947000    4.64092000      0.785023   -0.45971600   -0.16812500
Te   17.20797000    2.72642000   21.90820000      0.029488    1.23334600   -0.64420400
Te   14.50687000    8.43089000    3.69483000     -0.970835   -1.50053000   -0.38369400
Te   17.37584000    8.71376000   19.78813000      1.886619    0.57353200    1.98962800
Te   16.61205000   14.36465000    5.40050000      0.404859   -0.05946200   -0.29246600
Te   17.03793000   14.28577000   22.65461000     -0.936000   -0.30961500   -0.03380300
Te   17.50095000   19.02092000    5.66297000     -0.501331   -0.14835600    0.34807000
Te   17.29489000   17.52466000   22.03360000     -0.796699   -0.17572900   -0.47904800
Te   17.34892000    0.76275000    8.05896000      0.133078    0.22396300    0.24669600
Te   15.35484000   20.73856000   21.14057000     -0.052638   -0.29590700    0.16063000
Te    5.88710000    4.14437000    5.20321000      0.263413   -1.01598800   -1.51716300
Te    8.27267000    1.83661000   21.06657000      1.149549    0.43778400    2.72588100
Te    5.95385000   11.82757000    1.64645000      0.217962   -1.20732700   -0.65878400
Te    8.44712000    5.46074000   21.24671000     -0.308218    0.12494300    0.14212800
Te    3.21908000    9.49847000    3.49684000      0.689149   -0.48504300   -0.64058400
Te    5.98666000   10.53504000   20.76322000     -0.391177   -1.03761500    0.31001100
Te    7.89432000   14.57250000    1.48465000     -0.020263   -0.01309500   -0.22618300
Te    3.23176000   14.63452000   22.55424000      0.655217    1.51407600   -1.05511800
Te    3.20520000    0.54796000    3.19583000      0.552558   -0.35858900    0.29320500
Te    6.30280000   18.92407000   20.17774000      0.099345    0.68129300   -0.43427000
Te   10.17493000    4.79016000    4.37899000     -0.391636   -0.34290700   -0.19776700
Te   12.69260000    3.07505000   22.37162000      1.450223    0.20828200   -0.14495000
Te   14.94031000    7.37057000    6.59432000      0.140616    0.05369200    0.79165400
Te   14.72309000    7.85364000   21.87696000     -0.244105    0.38427800   -0.18809000
Te   11.25113000    7.59874000    4.58463000      0.017177    0.26121300    0.56349700
Te   15.24252000   11.72484000   19.35282000     -0.408521   -0.08882700    0.52970900
Te   13.90258000   12.33388000    4.00474000      1.704775    0.52497500   -0.65484500
Te   12.49730000   14.12252000   20.28411000      0.414562   -0.29528800    0.62317800
Te   11.49941000    1.38957000    5.21654000      0.559691    1.81494900   -1.03141600
Te   13.24671000   18.50143000   21.72581000      0.511053   -0.52085900   -0.74537600
Te   17.87146000    3.42618000    4.74501000     -0.976500    1.00872000    0.34577100
Te   21.29723000    1.97133000   23.00578000     -0.486692   -0.81429700    0.73330900
Te   20.29511000    6.19309000    3.02387000      0.299970    0.19898200    0.46722200
Te   19.04622000    6.15049000   22.88057000      0.268360   -0.29872800    0.75531400
Te   19.98889000    9.80255000    2.62969000     -1.090309   -1.85928600   -1.11567800
Te   20.74830000    9.50675000   21.68654000      0.125855    0.52965200   -0.43153900
Te    0.76553000   17.71775000    4.36799000      0.165549    0.36400500   -0.16679500
Te   19.54820000   13.37354000   23.55505000      0.838562    0.83351700   -0.40803100
Te   20.25810000   16.14956000    3.20376000     -0.214014   -0.61790300   -0.27443800
Te   20.71292000   16.74199000   22.96830000      0.338121    0.10990700    0.07252300
Te    6.18720000    4.27976000   15.81039000      0.649516   -0.45947000   -0.20342100
Te    7.70142000   10.20896000   16.20154000      0.514821   -0.16436500    0.09230800
Te    8.05665000   12.28514000   18.59737000      0.189230    0.63558100    0.95675900
Te    9.27020000   18.60935000   12.87208000      0.091453    0.49952000    0.67081400
Te    9.08259000    0.58884000   17.51129000      0.163263   -0.03602900    0.11715700
Te   15.60229000    2.74547000   16.53359000      0.172544    0.72093400   -0.59708400
Te   13.82973000   10.43264000   16.44364000      1.102447   -1.22955600   -0.81320600
Te   15.39717000   13.42552000   15.35085000      0.638696   -1.59825700    1.48409300
Te   16.23492000   15.39001000   19.62093000     -0.406108   -0.19523600   -1.23764800
Te   13.11685000   18.91707000   14.09208000      1.356261    0.92873000   -0.59156200
Te    0.24095000    4.40945000   18.95434000      0.115586    0.00173500   -0.57499200
Te   20.23777000    9.69175000   18.12061000      0.086096   -0.45373400   -0.00990800
Te   21.92185000   12.63106000   19.33109000     -1.083884    0.40806800    1.40802500
Te    1.01358000   18.53097000   14.35519000      0.206507   -0.75826300    2.20480600
Te    0.61619000   19.44216000   19.61628000      0.975568    0.10357800   -1.33380900
Te    3.80036000    2.76550000   18.06515000     -0.084575   -1.02619000    0.50857500
Te    3.17999000    5.97224000   17.94322000     -0.079087    0.99696200    0.09540600
Te    4.50834000    9.83095000   17.66821000      0.704848    0.56929800    0.45650900
Te    1.00799000   16.67028000   17.26343000      0.419025   -0.07868300    0.73005200
Te    6.41175000   18.74630000   16.43263000      0.128251    0.43870400    0.80311600
Te   12.66783000    1.76524000   16.89361000      0.083358    0.16129900   -0.30535800
Te   12.87840000    6.92724000   17.40248000     -0.605105   -0.04593800   -0.83494200
Te   11.31312000    9.26763000   15.48907000     -0.280336   -0.35701200   -0.33634600
Te   10.64312000   14.76930000   16.74240000     -0.190674    0.07835600   -0.89894700
Te   10.98871000   19.23960000   17.92414000      1.126026    1.24060400   -0.31511600
Te   16.49333000    0.07408000   17.66794000      0.228531   -0.06433100   -0.29467000
Te   18.95463000    6.25442000   15.23909000      0.164762   -0.26745500    0.25312400
Te   18.53367000   10.62705000   16.05787000     -0.107338    0.17083200    0.01666500
Te   19.61285000   14.31891000   17.90993000      1.311321    0.01901300   -1.17225100
Te   20.33189000   20.35434000   16.85017000      0.401486    0.22950900   -0.74332700
