      360
    14.80000    14.79000    12.67000  90.000  90.000  90.000
 C      0.25125     4.67940     0.60359  -0.183        1
 C      7.02885     0.33549     1.89739  -0.196        2
 C      3.38090     2.17129     1.89829  -0.212        3
 C      4.00393     2.71736     0.63810  -0.194        4
 H      1.35540     4.62886     0.58214   0.097        5
 H      2.37913     2.25619     1.84346   0.111        7
 H      5.10661     2.65626     0.68091   0.103        8
 H      0.23189     3.53632     0.53371   0.085        9
 H      7.08064     1.45966     1.82812   0.092       10
 H      3.48773     1.08963     1.86992   0.097       11
 H      3.87928     3.83371     0.72010   0.096       12
 C      0.34437     4.63990     3.18655  -0.193       13
 C      7.08253     0.29486     4.41850  -0.198       14
 C      3.35828     2.15034     4.39579  -0.205       15
 C      4.02992     2.78918     3.17333  -0.193       16
 H      1.40053     4.80898     3.11053   0.103       17
 H      2.27246     2.34902     4.45219   0.105       19
 H      5.11798     2.49284     3.16821   0.102       20
 H      0.35259     3.45580     3.06040   0.084       21
 H      7.11295     1.38179     4.45979   0.095       22
 H      3.54601     1.06610     4.46320   0.098       23
 H      3.82679     3.89062     3.34108   0.094       24
 C      0.28364     4.68311     5.69921  -0.187       25
 C      7.02680     0.33231     6.96598  -0.197       26
 C      3.37339     2.13443     7.00165  -0.199       27
 C      4.00363     2.69401     5.74264  -0.208       28
 H      1.36015     4.76412     5.56380   0.103       29
 H      2.30989     2.39057     6.99614   0.106       31
 H      5.06045     2.57473     5.71548   0.104       32
 H      7.02497     1.43649     7.01033   0.091       34
 H      3.51152     1.03813     7.10321   0.095       35
 H      3.92437     3.77859     5.85978   0.096       36
 C      0.41178     4.58109     8.19566  -0.200       37
 C      7.10945     0.25645     9.49709  -0.200       38
 C      3.38555     2.19700     9.54594  -0.197       39
 C      4.05706     2.80868     8.20828  -0.210       40
 H      1.48521     4.86045     8.32258   0.104       41
 H      2.28733     2.42142     9.48493   0.105       43
 H      5.11959     2.67875     8.21058   0.104       44
 H      0.31436     3.47460     8.16004   0.096       45
 H      7.20674     1.34288     9.40954   0.098       46
 H      3.61272     1.12009     9.53493   0.098       47
 H      3.99034     3.89393     8.05986   0.093       48
 C      0.35869     4.60824    10.80450  -0.205       49
 C      7.08295     0.28469    12.03272  -0.202       50
 C      3.33590     2.17704    11.98417  -0.197       51
 C      4.05559     2.77383    10.76808  -0.191       52
 H      1.43325     4.93260    10.85137   0.102       53
 H      2.21694     2.42724    11.95769   0.096       55
 H      5.17956     2.51045    10.78338   0.098       56
 H      0.21123     3.48862    10.86040   0.094       57
 H      7.24858     1.37110    12.07496   0.098       58
 H      3.37949     1.08736    11.95143   0.098       59
 H      3.96564     3.86269    10.77555   0.099       60
 C      0.34626     9.56064     0.62300  -0.195       61
 C      7.10203     5.23575     1.96409  -0.198       62
 C      3.36703     7.06738     1.91298  -0.188       63
 C      4.03044     7.66705     0.63616  -0.202       64
 H      1.42973     9.58182     0.60518   0.100       65
 H      6.03380     5.13343     1.99807   0.107       66
 H      2.23210     7.25041     1.89719   0.098       67
 H      5.12320     7.55343     0.63974   0.103       68
 H      7.13342     6.32502     1.93139   0.095       70
 H      3.43208     5.93962     1.99793   0.092       71
 H      3.98719     8.74159     0.68749   0.098       72
 C      0.34251     9.58367     3.17190  -0.211       73
 C      7.07977     5.25829     4.44285  -0.199       74
 C      3.38098     7.13514     4.43563  -0.184       75
 C      4.08831     7.72897     3.15245  -0.216       76
 H      1.40901     9.79697     3.22610   0.105       77
 H      5.98572     5.09172     4.38197   0.102       78
 H      2.28099     7.35925     4.41098   0.101       79
 H      5.11272     7.54569     3.17798   0.110       80
 H      7.19980     6.39245     4.36563   0.092       82
 H      3.61425     5.94422     4.50685   0.086       83
 H      3.90821     8.78784     3.11063   0.101       84
 C      0.34916     9.55542     5.73008  -0.194       85
 C      7.08192     5.25900     6.95745  -0.188       86
 C      3.36345     7.08671     6.95328  -0.201       87
 C      4.07434     7.74911     5.74258  -0.207       88
 H      1.46027     9.71712     5.63233   0.100       89
 H      5.98237     5.14622     6.95009   0.099       90
 H      2.24723     7.24492     6.85476   0.101       91
 H      5.15003     7.66699     5.70953   0.101       92
 H      0.26318     8.47473     5.66695   0.098       93
 H      7.03188     6.38756     6.97760   0.088       94
 H      3.46302     6.02705     6.90042   0.099       95
 H      4.03110     8.83104     5.81280   0.093       96
 C      0.32697     9.51946     8.25089  -0.194       97
 C      7.05467     5.20124     9.51242  -0.202       98
 C      3.38820     7.05431     9.47056  -0.197       99
 C      3.98087     7.63995     8.27081  -0.198      100
 H      1.45111     9.77122     8.24463   0.100      101
 H      5.97195     5.00577     9.39343   0.104      102
 H      2.33275     7.28389     9.46349   0.106      103
 H      5.03055     7.51474     8.24439   0.109      104
 H      0.19257     8.42964     8.37697   0.097      105
 H      7.16617     6.28425     9.49278   0.098      106
 H      3.54106     5.92511     9.49679   0.092      107
 H      3.80605     8.73863     8.15985   0.096      108
 C      0.32487     9.54667    10.77211  -0.204      109
 C      7.04111     5.22773    12.03148  -0.190      110
 C      3.36655     7.14563    11.99412  -0.188      111
 C      4.01513     7.68095    10.77994  -0.201      112
 H      1.39157     9.77553    10.81137   0.104      113
 H      5.94396     5.02172    11.96513   0.102      114
 H      2.27794     7.35263    11.91216   0.100      115
 H      5.11020     7.44335    10.85472   0.102      116
 H      0.19284     8.47983    10.87093   0.098      117
 H      7.11067     6.36734    11.94042   0.092      118
 H      3.45776     5.99081    12.01531   0.093      119
 H      3.94291     8.77325    10.71511   0.096      120
 C      0.32083    14.47112     0.61255  -0.197      121
 C      7.08276    10.13056     1.91825  -0.183      122
 C      3.30338    12.03539     1.93718  -0.214      123
 C      3.99213    12.57744     0.63315  -0.181      124
 H      5.91318     9.97004     1.94585   0.093      126
 H      2.31677    12.27776     2.02653   0.114      127
 H      5.07537    12.21276     0.64078   0.102      128
 H      0.18016    13.37271     0.74280   0.095      129
 H      7.09072    11.25474     1.99266   0.089      130
 H      3.48185    10.94284     1.94386   0.101      131
 H      3.85726    13.73942     0.54521   0.092      132
 C      0.35112    14.42559     3.21085  -0.201      133
 C      7.11876    10.10870     4.46757  -0.202      134
 C      3.42014    12.04417     4.45504  -0.214      135
 C      4.06426    12.61449     3.11855  -0.189      136
 H      6.09118     9.85740     4.53455   0.109      138
 H      2.40860    12.25947     4.48873   0.112      139
 H      5.20683    12.43244     3.08892   0.095      140
 H      0.28069    13.29989     3.12734   0.090      141
 H      7.13873    11.23867     4.39105   0.093      142
 H      3.60526    10.98234     4.60284   0.103      143
 H      3.97247    13.72875     2.96248   0.093      144
 C      0.30803    14.56513     5.70427  -0.192      145
 C      7.03276    10.20335     6.97047  -0.203      146
 C      3.40197    11.98544     6.90581  -0.205      147
 C      4.04759    12.62576     5.70303  -0.186      148
 H      5.96990    10.06280     6.90627   0.105      150
 H      2.34867    12.18242     6.86370   0.108      151
 H      5.19011    12.54574     5.66646   0.099      152
 H      0.27008    13.42846     5.64042   0.091      153
 H      7.10661    11.29327     6.95601   0.097      154
 H      3.48475    10.90983     7.01826   0.095      155
 H      3.96507    13.74083     5.57429   0.092      156
 C      0.34326    14.49440     8.12449  -0.198      157
 C      7.05993    10.21833     9.52053  -0.198      158
 C      3.38795    12.03757     9.52451  -0.191      159
 C      4.01824    12.62940     8.26472  -0.209      160
 H      5.96604    10.00537     9.60410   0.103      162
 H      2.28357    12.15915     9.58220   0.104      163
 H      5.09454    12.47092     8.35487   0.106      164
 H      0.20142    13.37492     8.02096   0.095      165
 H      7.16851    11.31535     9.56103   0.093      166
 H      3.50205    10.93236     9.54471   0.093      167
 H      3.91922    13.66890     8.28184   0.103      168
 C      0.35314    14.45921    10.77413  -0.198      169
 C      7.07438    10.16402    11.99811  -0.201      170
 C      3.32448    11.99897    12.10381  -0.219      171
 C      4.00978    12.64308    10.71059  -0.202      172
 H      6.00923     9.88830    11.92107   0.105      174
 H      2.28616    12.12471    12.11320   0.110      175
 H      5.08748    12.56495    10.69041   0.103      176
 H      0.22990    13.33380    10.84639   0.095      177
 H      7.11146    11.24615    11.93407   0.098      178
 H      3.38397    10.97154    12.04821   0.103      179
 H      3.91359    13.75587    10.66232   0.092      180
 C      7.74748     4.62497     0.60107  -0.199      181
 C     14.48424     0.27345     1.92758  -0.213      182
 C     10.73162     2.10070     1.87261  -0.197      183
 C     11.37113     2.73161     0.66029  -0.184      184
 H      8.83284     4.73240     0.60979   0.103      185
 H      9.62226     2.22786     1.85853   0.104      187
 H     12.52611     2.59715     0.60554   0.099      188
 H      7.73505     3.54382     0.45087   0.096      189
 H     14.59327     1.32732     1.80194   0.100      190
 H     10.86579     0.98979     1.78530   0.094      191
 H     11.24340     3.85890     0.69213   0.093      192
 C      7.74541     4.64986     3.14451  -0.191      193
 C     14.41911     0.33578     4.40450  -0.198      194
 C     10.78128     2.16146     4.41773  -0.201      195
 C     11.37055     2.70708     3.20915  -0.191      196
 H      8.82182     4.86115     3.13282   0.105      197
 H      9.73365     2.28714     4.46260   0.110      199
 H     12.47987     2.64666     3.22319   0.101      200
 H      7.66768     3.50669     3.21677   0.093      201
 H     10.89522     1.06434     4.55905   0.097      203
 H     11.26978     3.79168     3.27555   0.096      204
 C      7.71763     4.67941     5.74425  -0.195      205
 C     14.44119     0.34847     7.00509  -0.191      206
 C     10.79225     2.17674     6.98301  -0.195      207
 C     11.46887     2.80194     5.72280  -0.196      208
 H      8.74013     4.80173     5.85023   0.112      209
 H      9.73797     2.37146     6.98663   0.107      211
 H     12.60822     2.53067     5.70673   0.098      212
 H      7.53442     3.53421     5.68017   0.092      213
 H     14.56492     1.45262     7.03337   0.095      214
 H     10.81441     1.02322     7.09285   0.088      215
 H     11.46331     3.91515     5.74279   0.092      216
 C      7.75000     4.57558     8.21785  -0.211      217
 C     14.49305     0.27628     9.51234  -0.203      218
 C     10.75101     2.16540     9.49802  -0.199      219
 C     11.42719     2.75191     8.20962  -0.195      220
 H      8.80963     4.75022     8.25474   0.105      221
 H      9.62924     2.45520     9.51931   0.098      223
 H     12.53488     2.56841     8.13091   0.101      224
 H      7.70047     3.49588     8.26037   0.095      225
 H     14.56733     1.39844     9.61969   0.092      226
 H     10.90442     1.09556     9.48695   0.099      227
 H     11.35108     3.85064     8.12809   0.095      228
 C      7.70137     4.61400    10.75992  -0.196      229
 C     14.46105     0.29833    12.05873  -0.194      230
 C     10.76821     2.22313    12.03598  -0.198      231
 C     11.48581     2.84136    10.74160  -0.208      232
 H      8.80534     4.81075    10.66424   0.103      233
 H      9.69573     2.33405    11.97038   0.103      235
 H     12.55325     2.60593    10.64597   0.103      236
 H      7.63092     3.51292    10.76672   0.094      237
 H     10.85735     1.09913    12.01439   0.093      239
 H     11.41869     3.91949    10.74262   0.098      240
 C      7.72263     9.55165     0.62299  -0.192      241
 C     14.42661     5.25416     1.94635  -0.202      242
 C     10.76720     7.08484     1.88552  -0.200      243
 C     11.48724     7.75104     0.63606  -0.212      244
 H      8.79264     9.73310     0.63447   0.105      245
 H     13.35764     5.14245     2.04094   0.104      246
 H      9.71130     7.20419     1.94921   0.107      247
 H     12.46670     7.63553     0.60449   0.116      248
 H      7.69771     8.38836     0.58939   0.090      249
 H     14.48842     6.35482     1.95986   0.097      250
 H     10.89974     5.97373     1.92436   0.092      251
 H     11.42484     8.87892     0.60028   0.092      252
 C      7.75677     9.51999     3.14124  -0.203      253
 C     14.42753     5.27380     4.41381  -0.205      254
 C     10.74879     7.06120     4.46937  -0.208      255
 C     11.37722     7.65978     3.12090  -0.200      256
 H      8.81579     9.71123     3.12194   0.105      257
 H     13.39660     5.07463     4.28582   0.109      258
 H      9.69056     7.23647     4.49782   0.108      259
 H     12.48062     7.47761     3.03789   0.104      260
 H      7.67612     8.40988     3.21311   0.094      261
 H     14.57316     6.36461     4.45291   0.097      262
 H     10.94238     5.94917     4.44406   0.094      263
 H     11.13264     8.72910     3.08322   0.100      264
 C      7.72588     9.54883     5.74202  -0.195      265
 C     14.48650     5.21432     6.98864  -0.187      266
 C     10.78313     7.09818     6.96961  -0.192      267
 C     11.44929     7.69679     5.71403  -0.196      268
 H      8.81481     9.72676     5.82785   0.105      269
 H     13.33839     5.07224     7.11720   0.097      270
 H      9.69073     7.21034     6.92348   0.102      271
 H     12.53296     7.48297     5.58215   0.106      272
 H      7.57989     8.42275     5.76637   0.091      273
 H     14.64735     6.29864     7.13851   0.099      274
 H     10.91583     6.02414     6.94072   0.097      275
 H     11.32882     8.80119     5.70448   0.096      276
 C      7.70324     9.59023     8.22913  -0.196      277
 C     14.58498     5.14783     9.48377  -0.209      278
 C     10.74113     7.09231     9.53414  -0.197      279
 C     11.41001     7.70219     8.23184  -0.207      280
 H      8.77509     9.77961     8.20848   0.104      281
 H     13.48822     4.98485     9.53460   0.105      282
 H      9.58149     7.33890     9.45492   0.095      283
 H     12.48591     7.66464     8.34686   0.102      284
 H      7.69193     8.48744     8.22162   0.093      285
 H     10.86404     6.02720     9.46293   0.101      287
 H     11.39926     8.72669     8.40505   0.100      288
 C      7.72687     9.55559    10.74116  -0.204      289
 C     14.39752     5.27320    12.03198  -0.203      290
 C     10.78489     7.14217    12.04631  -0.192      291
 C     11.45400     7.73056    10.73737  -0.206      292
 H      8.78103     9.73871    10.75288   0.106      293
 H     13.33843     5.01819    11.98131   0.106      294
 H      9.68350     7.37323    12.08754   0.104      295
 H     12.47131     7.43429    10.72484   0.110      296
 H      7.67540     8.45686    10.59987   0.093      297
 H     14.54336     6.38358    11.94875   0.093      298
 H     10.91115     6.03923    12.16388   0.097      299
 H     11.28849     8.82846    10.65670   0.097      300
 C      7.76407    14.47059     0.64769  -0.198      301
 C     14.48960    10.16194     1.90556  -0.184      302
 C     10.74191    11.99789     1.91716  -0.200      303
 C     11.44198    12.62740     0.58750  -0.199      304
 H     13.37580    10.06153     1.98840   0.102      306
 H      9.62098    12.13138     2.01988   0.097      307
 H     12.54054    12.51321     0.54517   0.102      308
 H      7.70177    13.38553     0.77847   0.097      309
 H     14.60807    11.30635     1.81166   0.090      310
 H     10.79549    10.93089     1.98281   0.097      311
 H     11.31606    13.70703     0.63257   0.097      312
 C      7.73124    14.47159     3.17413  -0.194      313
 C     14.44156    10.21615     4.46349  -0.209      314
 C     10.73600    12.01013     4.46648  -0.197      315
 C     11.42025    12.59116     3.16822  -0.219      316
 H     13.38882    10.01898     4.51696   0.106      318
 H      9.60595    12.23924     4.36262   0.098      319
 H     12.43823    12.43449     3.16125   0.111      320
 H      7.65537    13.38176     3.27529   0.094      321
 H     14.51075    11.30874     4.42359   0.096      322
 H     10.90139    10.94718     4.40137   0.099      323
 H     11.37702    13.63957     3.13630   0.103      324
 C      7.70055    14.49140     5.66861  -0.188      325
 C     14.49641    10.11904     6.96798  -0.189      326
 C     10.75102    12.01825     6.94735  -0.188      327
 C     11.41109    12.58526     5.72409  -0.208      328
 H     13.37242    10.09773     6.93731   0.094      330
 H      9.62742    12.20770     6.86263   0.102      331
 H     12.45497    12.39234     5.71911   0.106      332
 H      7.64113    13.37702     5.74082   0.093      333
 H     14.51812    11.20730     7.02132   0.093      334
 H     10.97769    10.91796     6.83124   0.096      335
 H     11.31811    13.65591     5.79463   0.101      336
 C      7.72612    14.51545     8.23312  -0.202      337
 C     14.42782    10.15610     9.45903  -0.205      338
 C     10.80980    12.06375     9.48083  -0.194      339
 C     11.47194    12.63451     8.18659  -0.194      340
 H     13.36131     9.98437     9.26350   0.103      342
 H      9.66548    12.07858     9.60483   0.095      343
 H     12.55998    12.58082     8.24588   0.098      344
 H      7.57515    13.44407     8.37182   0.100      345
 H     14.56574    11.22945     9.45240   0.099      346
 H     10.82214    10.98955     9.50887   0.096      347
 H     11.44245    13.74563     8.11862   0.091      348
 C      7.76591    14.47022    10.76276  -0.194      349
 C     14.45092    10.16779    12.04618  -0.210      350
 C     10.75964    12.04985    12.04421  -0.184      351
 C     11.46712    12.63956    10.80164  -0.204      352
 H     13.37610     9.95842    12.05929   0.108      354
 H      9.62702    12.24559    12.00515   0.096      355
 H     12.51643    12.40214    10.74345   0.109      356
 H      7.66395    13.36941    10.72932   0.095      357
 H     14.54967    11.18511    12.05685   0.106      358
 H     10.81950    10.91636    12.11412   0.093      359
 H     11.26081    13.75909    10.79161   0.095      360
 H     13.32998     0.05070     7.06807   0.100      210
 H      6.00820     0.19870     4.43440   0.102       18
 H     14.64156     1.38534    12.05722   0.095      238
 H      0.30344     8.56145     3.18597   0.105       81
 H     14.47579     1.44425     4.32460   0.094      202
 H      0.19237     3.53367     5.70537   0.091       33
 H      0.38470     8.43835     0.59477   0.089       69
 H      8.84701    14.65263     3.13620   0.102      317
 H     13.35031     0.15201     4.32198   0.104      198
 H      1.43915    14.64272    10.78181   0.106      173
 H      1.41019    14.64166     0.66166   0.103      125
 H      1.40533    14.69073     3.27016   0.106      137
 H      8.83708    14.67225     5.65575   0.099      329
 H      8.84565    14.50647     0.63348   0.101      305
 H      5.99458     0.16998     9.52067   0.098       42
 H      8.89122    14.71081    10.78164   0.098      353
 H      5.94179     0.19660     2.03081   0.101        6
 H     13.32623     0.00331    12.04620   0.099      234
 H      8.78066    14.61422     8.35274   0.108      341
 H      6.03200     0.09324    12.04360   0.110       54
 H      1.40347    14.66838     5.72853   0.099      149
 H     13.43363     0.18060     2.04724   0.108      186
 H      5.92763     0.26941     6.92515   0.099       30
 H     13.45103     0.17112     9.59978   0.107      222
 H      1.37149     0.04259     8.04642   0.109      161
 H     14.79660     6.16350     9.62555   0.104      286
