      360
    14.80000    14.79000    12.67000  90.000  90.000  90.000
 C      0.33915     4.61641     0.60065  -0.203        1
 C      7.04904     0.30071     1.92847  -0.198        2
 C      3.36740     2.16775     1.88074  -0.202        3
 C      4.01257     2.74677     0.66121  -0.194        4
 H      1.46493     4.82159     0.58726   0.100        5
 H      2.26941     2.36091     1.84143   0.102        7
 H      5.15329     2.59846     0.65124   0.098        8
 H      0.22311     3.58828     0.59223   0.105        9
 H      7.14425     1.37662     1.98522   0.099       10
 H      3.45331     1.12875     1.95171   0.103       11
 H      3.97311     3.78613     0.70070   0.102       12
 C      0.33549     4.63441     3.19484  -0.191       13
 C      7.09950     0.27502     4.42888  -0.188       14
 C      3.38458     2.17601     4.44577  -0.203       15
 C      4.04414     2.76258     3.15282  -0.210       16
 H      1.47428     4.80950     3.22934   0.097       17
 H      2.28365     2.40440     4.47593   0.101       19
 H      5.13749     2.51635     3.14149   0.102       20
 H      0.25700     3.57154     3.20044   0.100       21
 H      7.22772     1.35524     4.41481   0.097       22
 H      3.51410     1.13287     4.38425   0.103       23
 H      3.92124     3.79549     3.18120   0.105       24
 C      0.31793     4.66147     5.70615  -0.202       25
 C      7.06534     0.30681     6.97477  -0.205       26
 C      3.35274     2.15792     6.97541  -0.201       27
 C      4.02130     2.74940     5.68386  -0.202       28
 H      1.45303     4.77604     5.75352   0.096       29
 H      2.22078     2.37305     6.94018   0.096       31
 H      5.13655     2.55924     5.70756   0.100       32
 H      0.25213     3.61439     5.75393   0.101       33
 H      7.18574     1.34997     6.97182   0.103       34
 H      3.48022     1.11411     6.97478   0.102       35
 H      3.91892     3.79132     5.66776   0.101       36
 C      0.33369     4.64776     8.26504  -0.195       37
 C      7.05613     0.30469     9.49162  -0.204       38
 C      3.36514     2.18289     9.49718  -0.208       39
 C      4.02774     2.75698     8.22386  -0.205       40
 H      1.47808     4.80314     8.25516   0.096       41
 H      5.93318     0.11151     9.43337   0.098       42
 H      2.24563     2.42696     9.46941   0.100       43
 H      5.13335     2.52806     8.31040   0.100       44
 H      0.24317     3.59207     8.25711   0.100       45
 H      7.17268     1.32909     9.46902   0.105       46
 H      3.52842     1.15991     9.52626   0.106       47
 H      3.88430     3.78287     8.24235   0.105       48
 C      0.33724     4.63166    10.75977  -0.201       49
 C      7.05117     0.29508    12.03250  -0.197       50
 C      3.35309     2.16311    12.04002  -0.203       51
 C      4.06919     2.77850    10.78725  -0.207       52
 H      1.47025     4.84380    10.73189   0.098       53
 H      2.24314     2.31144    12.05142   0.100       55
 H      5.19128     2.60951    10.76572   0.099       56
 H      0.21271     3.58422    10.74048   0.102       57
 H      7.16016     1.33829    12.03681   0.104       58
 H      3.41890     1.13642    11.95026   0.104       59
 H      3.94923     3.80678    10.77386   0.105       60
 C      0.30507     9.58090     0.61977  -0.194       61
 C      7.05596     5.21858     1.90318  -0.194       62
 C      3.35112     7.09023     1.87490  -0.201       63
 C      4.01433     7.67829     0.64837  -0.192       64
 H      1.44811     9.76121     0.65122   0.098       65
 H      5.92124     5.02621     1.89367   0.098       66
 H      2.24183     7.22020     1.82954   0.101       67
 H      5.16428     7.56195     0.61201   0.094       68
 H      0.19553     8.52938     0.61656   0.102       69
 H      7.16207     6.27730     1.89185   0.101       70
 H      3.39633     6.04472     1.93271   0.102       71
 H      3.99292     8.72867     0.66950   0.099       72
 C      0.33514     9.56440     3.16669  -0.203       73
 C      7.08196     5.21508     4.41939  -0.203       74
 C      3.38994     7.11558     4.44084  -0.197       75
 C      4.03995     7.69303     3.17418  -0.206       76
 H      1.45111     9.74075     3.17219   0.100       77
 H      5.96098     5.03332     4.48613   0.099       78
 H      2.27359     7.34323     4.54175   0.100       79
 H      5.14731     7.48481     3.14311   0.101       80
 H      0.23320     8.51699     3.18888   0.103       81
 H      7.18786     6.25772     4.44489   0.103       82
 H      3.52466     6.06571     4.46154   0.102       83
 H      3.94924     8.72159     3.18585   0.104       84
 C      0.34785     9.56337     5.67491  -0.206       85
 C      7.08651     5.22299     6.97055  -0.200       86
 C      3.35775     7.09058     6.97787  -0.203       87
 C      4.02660     7.67964     5.68098  -0.205       88
 H      1.46132     9.74250     5.68646   0.098       89
 H      5.95530     5.02459     6.97717   0.097       90
 H      2.23269     7.29981     6.91162   0.099       91
 H      5.14744     7.47781     5.70972   0.101       92
 H      0.26495     8.52584     5.67447   0.102       93
 H      7.19643     6.26019     6.99699   0.103       94
 H      3.50676     6.03787     6.93780   0.102       95
 H      3.89814     8.72639     5.67357   0.102       96
 C      0.34185     9.56645     8.26516  -0.201       97
 C      7.07729     5.21701     9.51436  -0.197       98
 C      3.36761     7.11655     9.51244  -0.199       99
 C      4.04066     7.69325     8.24242  -0.200      100
 H      1.47074     9.76799     8.24692   0.099      101
 H      5.94485     5.02624     9.42225   0.098      102
 H      2.23156     7.32721     9.52074   0.097      103
 H      5.15918     7.51648     8.25781   0.099      104
 H      0.24349     8.53096     8.26288   0.103      105
 H      7.16761     6.27101     9.44331   0.101      106
 H      3.51743     6.07814     9.54345   0.103      107
 H      3.90595     8.73815     8.21483   0.104      108
 C      0.32625     9.57418    10.77196  -0.200      109
 C      7.04218     5.23239    12.02210  -0.200      110
 C      3.36171     7.10393    12.03248  -0.207      111
 C      4.04755     7.68160    10.76740  -0.210      112
 H      1.46952     9.74817    10.76910   0.095      113
 H      5.90568     5.05223    12.11005   0.097      114
 H      2.25631     7.31578    12.00318   0.100      115
 H      5.15168     7.44772    10.80453   0.102      116
 H      0.23125     8.52481    10.75671   0.101      117
 H      7.12441     6.27220    12.10972   0.102      118
 H      3.46090     6.08000    11.92124   0.105      119
 H      3.87997     8.70134    10.79469   0.107      120
 C      0.32653    14.48853     0.62876  -0.199      121
 C      7.03539    10.16966     1.88496  -0.205      122
 C      3.36621    12.02861     1.90383  -0.201      123
 C      4.04005    12.63314     0.67195  -0.206      124
 H      5.91972     9.94866     1.89322   0.098      126
 H      2.26979    12.23885     1.85061   0.103      127
 H      5.16430    12.46392     0.63096   0.098      128
 H      0.20865    13.45678     0.63086   0.105      129
 H      7.14650    11.20301     1.91056   0.104      130
 H      3.47009    10.98890     1.94086   0.103      131
 H      3.98056    13.66110     0.67685   0.104      132
 C      0.35292    14.48186     3.17421  -0.196      133
 C      7.10833    10.12249     4.42207  -0.190      134
 C      3.38703    12.04679     4.45935  -0.203      135
 C      4.06457    12.64029     3.13220  -0.204      136
 H      1.48689    14.65244     3.22715   0.098      137
 H      5.95817     9.96347     4.42603   0.096      138
 H      2.29437    12.17342     4.56301   0.101      139
 H      5.16346    12.44632     3.04857   0.101      140
 H      0.26003    13.41930     3.22970   0.101      141
 H      7.18317    11.19823     4.42401   0.099      142
 H      3.46796    10.99235     4.46036   0.100      143
 H      3.96457    13.68385     3.10428   0.101      144
 C      0.31313    14.52047     5.69236  -0.200      145
 C      7.07197    10.16419     6.98029  -0.198      146
 C      3.36084    12.03162     6.95392  -0.203      147
 C      3.98688    12.57360     5.71352  -0.200      148
 H      5.93584    10.01925     6.94831   0.097      150
 H      2.23967    12.24244     6.87618   0.099      151
 H      5.10846    12.41323     5.75468   0.099      152
 H      0.19638    13.47134     5.76495   0.101      153
 H      7.14522    11.21761     6.99484   0.100      154
 H      3.51918    10.98953     6.88217   0.104      155
 H      3.88670    13.63763     5.71522   0.100      156
 C      0.34972    14.48586     8.23662  -0.201      157
 C      7.04636    10.17575     9.49837  -0.203      158
 C      3.37728    12.05186     9.54277  -0.194      159
 C      4.01344    12.60260     8.22960  -0.204      160
 H      5.91658     9.96910     9.49053   0.100      162
 H      2.24140    12.19335     9.61671   0.098      163
 H      5.12776    12.48623     8.19335   0.098      164
 H      0.24205    13.44800     8.17193   0.102      165
 H      7.15546    11.22457     9.50893   0.102      166
 H      3.48370    11.00859     9.66558   0.102      167
 H      3.92791    13.62631     8.15629   0.103      168
 C      0.33831    14.49187    10.74832  -0.198      169
 C      7.06496    10.14525    12.05938  -0.203      170
 C      3.36592    12.03525    11.98343  -0.208      171
 C      4.03343    12.60202    10.76145  -0.202      172
 H      5.95038     9.95756    12.10339   0.100      174
 H      2.23964    12.20412    12.01447   0.098      175
 H      5.15271    12.42243    10.77151   0.100      176
 H      0.22721    13.44581    10.72664   0.103      177
 H      7.16814    11.16208    12.04076   0.106      178
 H      3.44675    11.00949    11.94880   0.104      179
 H      3.91322    13.62782    10.80313   0.106      180
 C      7.73232     4.62941     0.64471  -0.209      181
 C     14.44842     0.29515     1.90503  -0.206      182
 C     10.76871     2.16664     1.89699  -0.205      183
 C     11.41374     2.74695     0.65818  -0.204      184
 H      8.84376     4.78888     0.59549   0.099      185
 H     13.34140     0.13691     1.90955   0.098      186
 H      9.67656     2.45944     1.86815   0.103      187
 H     12.53123     2.51782     0.68669   0.099      188
 H      7.64880     3.59909     0.60601   0.104      189
 H     14.52897     1.32964     1.90386   0.103      190
 H     10.93076     1.13403     1.92204   0.104      191
 H     11.30781     3.77101     0.67143   0.105      192
 C      7.73340     4.63437     3.16333  -0.200      193
 C     14.48480     0.28265     4.42124  -0.203      194
 C     10.76683     2.16571     4.46280  -0.203      195
 C     11.44659     2.77314     3.13541  -0.208      196
 H      8.86279     4.79856     3.19107   0.097      197
 H      9.64719     2.33642     4.51178   0.099      199
 H     12.54681     2.50145     3.08521   0.101      200
 H      7.63748     3.60646     3.20612   0.103      201
 H     14.57533     1.29793     4.41237   0.106      202
 H     10.89786     1.12964     4.44773   0.103      203
 H     11.29966     3.80968     3.11389   0.104      204
 C      7.72886     4.64781     5.69916  -0.208      205
 C     14.44913     0.32738     6.97916  -0.214      206
 C     10.75885     2.17073     6.93210  -0.203      207
 C     11.42985     2.74802     5.70873  -0.201      208
 H      8.83310     4.87081     5.66111   0.101      209
 H      9.62152     2.42299     6.91388   0.097      211
 H     12.54093     2.60319     5.73422   0.101      212
 H      7.60433     3.62315     5.67810   0.105      213
 H     14.59508     1.34343     6.96299   0.106      214
 H     10.92929     1.11434     6.93686   0.102      215
 H     11.31609     3.78715     5.72509   0.102      216
 C      7.73701     4.64264     8.23487  -0.209      217
 C     14.49558     0.28360     9.53622  -0.202      218
 C     10.75774     2.17242     9.50950  -0.194      219
 C     11.43387     2.76701     8.26016  -0.208      220
 H      8.84887     4.84190     8.27708   0.101      221
 H      9.63078     2.40788     9.47335   0.099      223
 H     12.53957     2.51194     8.17818   0.103      224
 H      7.62688     3.61713     8.23739   0.105      225
 H     14.60912     1.30093     9.54332   0.106      226
 H     10.90534     1.13947     9.55317   0.105      227
 H     11.26767     3.79085     8.15534   0.106      228
 C      7.72855     4.63287    10.77200  -0.201      229
 C     14.44370     0.29997    12.02783  -0.205      230
 C     10.75192     2.16702    12.05160  -0.209      231
 C     11.46289     2.77107    10.73807  -0.207      232
 H      8.83582     4.81764    10.77260   0.099      233
 H      9.63927     2.36978    12.10556   0.099      235
 H     12.58064     2.58625    10.76924   0.099      236
 H      7.63745     3.60986    10.77543   0.104      237
 H     14.55089     1.33410    12.00792   0.103      238
 H     10.86075     1.14153    12.02123   0.105      239
 H     11.33643     3.78508    10.79444   0.107      240
 C      7.71957     9.56464     0.62745  -0.199      241
 C     14.45792     5.21517     1.92840  -0.206      242
 C     10.76646     7.09907     1.90591  -0.204      243
 C     11.39991     7.66397     0.62702  -0.197      244
 H      8.83288     9.73563     0.60383   0.100      245
 H     13.34073     5.07208     1.94611   0.099      246
 H      9.65317     7.29732     1.88424   0.101      247
 H     12.54071     7.51022     0.65332   0.097      248
 H      7.63680     8.51761     0.61522   0.101      249
 H     14.52023     6.25290     1.92207   0.102      250
 H     10.85945     6.06317     1.93645   0.103      251
 H     11.35563     8.69600     0.65972   0.103      252
 C      7.71654     9.57151     3.17697  -0.205      253
 C     14.48251     5.21810     4.38381  -0.201      254
 C     10.78247     7.10937     4.43966  -0.205      255
 C     11.44940     7.70697     3.15729  -0.206      256
 H      8.83095     9.77649     3.21227   0.101      257
 H     13.35761     5.06904     4.36866   0.099      258
 H      9.67021     7.24425     4.47134   0.099      259
 H     12.54975     7.48654     3.13577   0.101      260
 H      7.61143     8.54725     3.21002   0.106      261
 H     14.56350     6.24010     4.40304   0.105      262
 H     10.89053     6.07809     4.38966   0.103      263
 H     11.34125     8.74520     3.16740   0.104      264
 C      7.76981     9.55040     5.67057  -0.207      265
 C     14.44514     5.25730     6.98549  -0.207      266
 C     10.78473     7.13201     6.93844  -0.201      267
 C     11.42017     7.66947     5.74377  -0.202      268
 H      8.89173     9.69779     5.66126   0.099      269
 H     13.32535     5.11364     6.94250   0.098      270
 H      9.65929     7.32360     6.88369   0.099      271
 H     12.53635     7.53681     5.79722   0.098      272
 H      7.71339     8.52754     5.66681   0.103      273
 H     14.52344     6.28890     6.96871   0.102      274
 H     10.94923     6.07964     6.91160   0.103      275
 H     11.32144     8.71272     5.78516   0.101      276
 C      7.72065     9.58708     8.24664  -0.201      277
 C     14.50389     5.19408     9.49128  -0.199      278
 C     10.77133     7.11194     9.49172  -0.194      279
 C     11.42825     7.68637     8.24529  -0.204      280
 H      8.83113     9.75891     8.31748   0.100      281
 H     13.38749     5.01454     9.51535   0.101      282
 H      9.63259     7.31220     9.52346   0.097      283
 H     12.54145     7.52435     8.18146   0.098      284
 H      7.63364     8.55505     8.26267   0.104      285
 H     14.61297     6.23114     9.46869   0.104      286
 H     10.90935     6.07489     9.59493   0.104      287
 H     11.30499     8.71886     8.14774   0.102      288
 C      7.75050     9.54451    10.77729  -0.208      289
 C     14.45201     5.22952    12.03439  -0.203      290
 C     10.74371     7.08715    12.05498  -0.201      291
 C     11.44242     7.68783    10.74687  -0.214      292
 H      8.85930     9.77751    10.74877   0.099      293
 H     13.34009     5.00106    12.02591   0.100      294
 H      9.60673     7.26999    12.07296   0.097      295
 H     12.55009     7.47421    10.73536   0.102      296
 H      7.61651     8.51348    10.73018   0.105      297
 H     14.57363     6.26733    12.04682   0.104      298
 H     10.81775     6.04641    11.99702   0.102      299
 H     11.31028     8.68835    10.76780   0.110      300
 C      7.72577    14.49053     0.60659  -0.205      301
 C     14.43510    10.16427     1.87872  -0.209      302
 C     10.74925    12.01862     1.90956  -0.199      303
 C     11.41645    12.60426     0.66101  -0.204      304
 H      8.84151    14.70384     0.60119   0.101      305
 H     13.33999    10.00298     1.89234   0.101      306
 H      9.63189    12.18335     1.88972   0.099      307
 H     12.55070    12.50590     0.63599   0.096      308
 H      7.60569    13.46114     0.57051   0.104      309
 H     14.53211    11.19069     1.88365   0.105      310
 H     10.82910    10.97665     1.92747   0.102      311
 H     11.38431    13.63060     0.68485   0.103      312
 C      7.72582    14.49665     3.18435  -0.204      313
 C     14.47629    10.15274     4.44833  -0.202      314
 C     10.75315    12.01665     4.40963  -0.210      315
 C     11.42959    12.60580     3.14515  -0.199      316
 H     13.35910     9.94671     4.44438   0.099      318
 H      9.66551    12.23603     4.45657   0.104      319
 H     12.53552    12.36907     3.14921   0.101      320
 H      7.62577    13.46974     3.15803   0.105      321
 H     14.58252    11.17622     4.50387   0.105      322
 H     10.90667    10.98358     4.40508   0.105      323
 H     11.28302    13.66134     3.17849   0.102      324
 C      7.74354    14.49783     5.68590  -0.210      325
 C     14.49055    10.15108     6.98429  -0.206      326
 C     10.76626    12.04182     6.98547  -0.203      327
 C     11.44056    12.62225     5.72985  -0.210      328
 H     13.37258     9.92741     6.95993   0.098      330
 H      9.65122    12.31362     6.95170   0.101      331
 H     12.54499    12.41444     5.73134   0.100      332
 H      7.59550    13.47379     5.72549   0.106      333
 H     14.60197    11.18638     6.96879   0.102      334
 H     10.96147    10.99461     7.00311   0.104      335
 H     11.29143    13.66042     5.73920   0.102      336
 C      7.73598    14.49717     8.23240  -0.203      337
 C     14.48481    10.14481     9.48990  -0.202      338
 C     10.78013    12.05109     9.51563  -0.191      339
 C     11.42258    12.60401     8.22756  -0.203      340
 H     13.36527     9.94654     9.49789   0.100      342
 H      9.62632    12.20790     9.45870   0.096      343
 H     12.54440    12.39813     8.14496   0.099      344
 H      7.61224    13.46655     8.18013   0.104      345
 H     14.58972    11.17216     9.45466   0.105      346
 H     10.85819    11.00381     9.50310   0.101      347
 H     11.29281    13.63350     8.09278   0.105      348
 C      7.75707    14.47680    10.79334  -0.202      349
 C     14.45388    10.14898    12.04953  -0.203      350
 C     10.78322    12.05255    12.00290  -0.202      351
 C     11.45358    12.63295    10.76266  -0.205      352
 H     13.34698     9.97009    12.04343   0.101      354
 H      9.64518    12.20682    12.06170   0.098      355
 H     12.54922    12.48029    10.86736   0.101      356
 H      7.66427    13.43221    10.79285   0.102      357
 H     14.56748    11.18441    12.03239   0.104      358
 H     10.86214    11.00977    11.98010   0.103      359
 H     11.35183    13.64664    10.84122   0.106      360
 H      5.91817     0.09175    11.98306   0.099       54
 H      1.45907    14.68970     0.65957   0.100      125
 H      8.88450    14.65859    10.84283   0.099      353
 H      1.48681    14.68966     8.16935   0.097      161
 H     13.36744     0.11715     4.38210   0.100      198
 H      5.94569     0.06344     4.45464   0.095       18
 H     13.32003     0.10494    12.01025   0.097      234
 H      5.90267     0.09796     1.96464   0.096        6
 H      5.93554     0.09814     6.97428   0.096       30
 H     13.35158     0.07296     6.93788   0.102      210
 H     13.38240     0.08270     9.58263   0.102      222
 H      1.47125    14.71960    10.69433   0.099      173
 H      8.84331    14.68916     3.09980   0.100      317
 H      1.44084    14.72981     5.77685   0.098      149
 H      8.85443    14.73567     8.23125   0.101      341
 H      8.82969    14.73989     5.71251   0.103      329
