      360
    14.80000    14.79000    12.67000  90.000  90.000  90.000
 C      0.27774     4.65484     0.71599  -0.211        1
 C      7.15025     0.27942     1.95158  -0.195        2
 C      3.37850     2.19903     1.93758  -0.218        3
 C      4.01436     2.71801     0.52865  -0.186        4
 H      1.32520     4.79228     0.68312   0.107        5
 H      2.35685     2.37819     1.92170   0.109        7
 H      5.18079     2.46699     0.53870   0.092        8
 H      7.41124     1.40030     1.87025   0.089       10
 H      3.44219     1.18034     1.94327   0.108       11
 H      4.03958     3.81335     0.48611   0.099       12
 C      0.37124     4.62294     3.16325  -0.200       13
 C      7.02603     0.41184     4.38634  -0.203       14
 C      3.44550     2.09847     4.41208  -0.189       15
 C      4.02711     2.77367     3.12621  -0.192       16
 H      1.38989     4.79633     2.83436   0.106       17
 H      2.29522     1.97867     4.58224   0.093       19
 H      5.11956     2.57123     3.11761   0.104       20
 H      7.30483     1.47055     4.35650   0.101       22
 H      3.54754     1.00191     4.59940   0.088       23
 H      3.89446     3.83624     3.19175   0.102       24
 C      0.30329     4.52067     5.72771  -0.199       25
 C      7.06187     0.36142     6.95348  -0.192       26
 C      3.37201     2.16561     6.98354  -0.190       27
 C      3.94548     2.78238     5.71729  -0.202       28
 H      1.36134     4.63124     5.90932   0.110       29
 H      2.21705     2.14815     6.95073   0.091       31
 H      5.03404     2.90102     5.73079   0.107       32
 H      7.26188     1.44254     7.01301   0.097       34
 H      3.57065     1.06650     7.00890   0.093       35
 H      3.66043     3.82919     5.65599   0.098       36
 C      0.29243     4.60389     8.22923  -0.209       37
 C      7.12522     0.34302     9.50570  -0.212       38
 C      3.34347     2.17770     9.52674  -0.185       39
 C      4.04991     2.80903     8.28135  -0.204       40
 H      1.32928     4.73551     8.27716   0.108       41
 H      2.22244     2.21859     9.46894   0.097       43
 H      5.12542     2.65834     8.35961   0.102       44
 H      7.31527     1.42133     9.40904   0.096       46
 H      3.58708     1.05165     9.58380   0.090       47
 H      3.94283     3.91484     8.25427   0.094       48
 C      0.22637     4.59590    10.79354  -0.186       49
 C      7.11489     0.32425    12.06491  -0.203       50
 C      3.37006     2.08031    12.10017  -0.199       51
 C      3.94356     2.76523    10.68339  -0.195       52
 H      1.35661     4.57313    10.72409   0.099       53
 H      2.19682     2.07332    12.15974   0.095       55
 H      5.00010     2.62617    10.65749   0.107       56
 H      7.34392     1.34638    12.13501   0.103       58
 H      3.68035     1.06697    12.11498   0.098       59
 H      3.68766     3.94206    10.64797   0.085       60
 C      0.29604     9.52868     0.63952  -0.193       61
 C      7.12100     5.31669     1.90983  -0.215       62
 C      3.35067     7.11319     1.84930  -0.204       63
 C      4.01396     7.68831     0.60146  -0.199       64
 H      1.35366     9.50778     0.67213   0.107       65
 H      6.07931     5.38015     1.84675   0.112       66
 H      2.28544     7.34526     1.96643   0.105       67
 H      5.05296     7.45157     0.67591   0.107       68
 H      7.36175     6.36220     1.98701   0.093       70
 H      3.50216     6.05383     1.93215   0.104       71
 H      4.04502     8.81834     0.64278   0.089       72
 C      0.22460     9.55634     3.15008  -0.199       73
 C      7.16380     5.23944     4.38663  -0.199       74
 C      3.44726     7.09548     4.43237  -0.205       75
 C      4.04479     7.61566     3.08465  -0.205       76
 H      1.37357     9.60487     3.20740   0.098       77
 H      6.09405     5.33480     4.49568   0.106       78
 H      2.33083     7.26137     4.39586   0.104       79
 H      5.08547     7.43886     3.09151   0.105       80
 H      7.43403     6.27933     4.38990   0.097       82
 H      3.56979     6.02232     4.56010   0.098       83
 H      3.96493     8.75907     3.00421   0.092       84
 C      0.21123     9.54797     5.67649  -0.192       85
 C      7.03539     5.25934     7.00817  -0.192       86
 C      3.41192     7.15941     6.96573  -0.185       87
 C      3.96213     7.81819     5.71741  -0.201       88
 H      1.34548     9.80832     5.66616   0.098       89
 H      5.95002     4.91545     7.08088   0.102       90
 H      2.27431     7.29759     6.96785   0.098       91
 H      5.10911     7.78402     5.55689   0.102       92
 H      7.17050     6.40783     7.04311   0.092       94
 H      3.67612     6.06903     6.99728   0.098       95
 H      3.73240     8.84886     5.66158   0.099       96
 C      0.35369     9.50497     8.16684  -0.185       97
 C      7.17002     5.25157     9.51135  -0.196       98
 C      3.38094     7.01281     9.54461  -0.181       99
 C      3.98306     7.75093     8.23486  -0.200      100
 H      1.49892     9.60716     8.05579   0.098      101
 H      6.06186     5.12554     9.57026   0.104      102
 H      2.22129     6.95055     9.56149   0.095      103
 H      5.05604     7.70498     8.32863   0.109      104
 H      7.31813     6.36733     9.50919   0.092      106
 H      3.53045     5.87179     9.65262   0.084      107
 H      3.77110     8.86268     8.16781   0.093      108
 C      0.40937     9.51180    10.82819  -0.197      109
 C      7.00971     5.24866    11.97465  -0.195      110
 C      3.34435     6.97663    11.98370  -0.194      111
 C      3.93700     7.72223    10.72893  -0.196      112
 H      1.44979     9.58963    10.83794   0.108      113
 H      5.90880     4.98532    11.82904   0.099      114
 H      2.20253     7.09769    12.08140   0.099      115
 H      4.98227     7.84837    10.73079   0.108      116
 H      7.05265     6.35832    11.90913   0.095      118
 H      3.50748     5.89358    11.97279   0.094      119
 H      3.55796     8.77664    10.73715   0.095      120
 C      0.33878    14.45508     0.63982  -0.204      121
 C      7.14564    10.07798     1.90068  -0.200      122
 C      3.28155    11.98722     1.85921  -0.176      123
 C      4.03870    12.60386     0.68521  -0.194      124
 H      6.10036     9.87150     1.96354   0.102      126
 H      2.08446    12.05626     1.98187   0.092      127
 H      5.09441    12.35207     0.83774   0.105      128
 H      7.17947    11.17654     2.01463   0.095      130
 H      3.43704    10.79671     1.86526   0.083      131
 H      3.92895    13.71017     0.60855   0.094      132
 C      0.35311    14.49868     3.20740  -0.208      133
 C      7.12363    10.15833     4.44134  -0.211      134
 C      3.39782    11.99673     4.39963  -0.203      135
 C      3.99915    12.59576     3.12563  -0.197      136
 H      6.09967    10.11448     4.33485   0.110      138
 H      2.29405    12.05300     4.42745   0.103      139
 H      5.04925    12.39861     3.18011   0.105      140
 H      7.30284    11.23916     4.57999   0.093      142
 H      3.58918    10.94771     4.38795   0.099      143
 H      3.79851    13.75167     3.14948   0.093      144
 C      0.19282    14.52803     5.70741  -0.195      145
 C      7.08365    10.20300     6.94033  -0.200      146
 C      3.46508    12.00519     6.97253  -0.203      147
 C      4.01289    12.68240     5.60594  -0.189      148
 H      6.00983    10.45049     6.95305   0.103      150
 H      2.38821    12.00734     7.03167   0.104      151
 H      5.20555    12.57178     5.66990   0.094      152
 H      7.32007    11.28989     6.87055   0.089      154
 H      3.46295    10.90723     7.01124   0.089      155
 H      3.74213    13.74297     5.54564   0.097      156
 C      0.29624    14.45147     8.15367  -0.202      157
 C      7.01779    10.25176     9.42953  -0.202      158
 C      3.45116    11.99424     9.55630  -0.189      159
 C      4.02597    12.67546     8.27507  -0.204      160
 H      5.89672    10.18621     9.48022   0.102      162
 H      2.32553    12.07392     9.59288   0.104      163
 H      5.08320    12.60264     8.31964   0.109      164
 H      7.17483    11.27072     9.47843   0.102      166
 H      3.80013    10.90000     9.51285   0.094      167
 H      3.87272    13.76559     8.31953   0.096      168
 C      0.36021    14.32690    10.77274  -0.203      169
 C      7.17644    10.16210    12.04927  -0.199      170
 C      3.46266    11.99234    12.10362  -0.184      171
 C      4.06220    12.70680    10.80104  -0.192      172
 H      6.12017    10.07976    12.15003   0.112      174
 H      2.35704    12.06032    12.13205   0.104      175
 H      5.18428    12.86793    10.91796   0.099      176
 H      7.44898    11.22404    12.18382   0.098      178
 H      3.50517    10.78880    12.13421   0.084      179
 H      3.65518    13.78362    10.93673   0.087      180
 C      7.60669     4.66995     0.66867  -0.193      181
 C     14.54979     0.28771     1.93304  -0.194      182
 C     10.82834     2.08753     1.91756  -0.201      183
 C     11.45035     2.81472     0.67226  -0.206      184
 H      8.70176     4.95896     0.73167   0.104      185
 H      9.73572     1.96314     1.82830   0.102      187
 H     12.56588     2.82615     0.73348   0.103      188
 H      7.54514     3.59718     0.79259   0.099      189
 H     11.18384     1.04204     1.94061   0.093      191
 H     11.11293     3.82636     0.67401   0.103      192
 C      7.61355     4.48511     3.16923  -0.191      193
 C     14.44831     0.40347     4.38304  -0.199      194
 C     10.80998     2.15954     4.47298  -0.199      195
 C     11.30706     2.82294     3.23357  -0.197      196
 H      8.73392     4.41784     3.13115   0.107      197
 H      9.77610     2.07027     4.66499   0.108      199
 H     12.42388     2.95018     3.19772   0.099      200
 H      7.13417     3.45643     3.08185   0.092      201
 H     11.12984     1.11203     4.46908   0.095      203
 H     11.13678     3.83296     3.20472   0.100      204
 C      7.73199     4.62337     5.72199  -0.193      205
 C     14.42645     0.36042     6.98285  -0.199      206
 C     10.72522     2.20577     6.91208  -0.204      207
 C     11.44533     2.84825     5.69681  -0.207      208
 H      8.88942     4.70819     5.83495   0.096      209
 H      9.66868     2.45633     6.82531   0.101      211
 H     12.50203     2.67659     5.67976   0.110      212
 H      7.63222     3.50027     5.68023   0.093      213
 H     10.71174     1.13015     6.84204   0.099      215
 H     11.25827     3.92386     5.63288   0.097      216
 C      7.69998     4.60471     8.21211  -0.199      217
 C     14.56303     0.19822     9.55137  -0.206      218
 C     10.73598     2.11974     9.47054  -0.193      219
 C     11.41017     2.81402     8.25737  -0.196      220
 H      8.79117     4.72888     8.11437   0.104      221
 H      9.63406     2.18438     9.42198   0.104      223
 H     12.49515     2.63551     8.19008   0.104      224
 H      7.66418     3.51871     8.18266   0.093      225
 H     10.86904     1.01922     9.50145   0.096      227
 H     11.37758     3.90054     8.31715   0.098      228
 C      7.78002     4.62980    10.82737  -0.193      229
 C     14.58969     0.32116    12.10576  -0.200      230
 C     10.81044     2.14654    12.07276  -0.201      231
 C     11.42424     2.75947    10.73658  -0.203      232
 H      8.87533     4.92095    10.80451   0.101      233
 H      9.66719     2.26749    12.17436   0.099      235
 H     12.49771     2.63330    10.71177   0.107      236
 H      7.67334     3.49233    10.81258   0.095      237
 H     11.01305     1.11012    12.04747   0.103      239
 H     11.26171     3.83388    10.76639   0.101      240
 C      7.82258     9.45648     0.63405  -0.207      241
 C     14.44815     5.19160     1.96217  -0.193      242
 C     10.78472     7.06601     1.96323  -0.180      243
 C     11.49930     7.69624     0.65683  -0.199      244
 H      8.91351     9.59908     0.63018   0.105      245
 H     13.39144     4.97338     2.04962   0.106      246
 H      9.61783     7.18378     1.92250   0.092      247
 H     12.69885     7.62559     0.59991   0.093      248
 H      7.66907     8.40015     0.78079   0.100      249
 H     10.82521     5.92185     1.89600   0.089      251
 H     11.34423     8.72372     0.60154   0.104      252
 C      7.84680     9.54585     3.12720  -0.192      253
 C     14.52891     5.25706     4.41069  -0.197      254
 C     10.79892     6.98578     4.43073  -0.199      255
 C     11.34474     7.66950     3.08887  -0.191      256
 H      8.93645     9.75863     3.21948   0.102      257
 H     13.48021     5.16846     4.44066   0.106      258
 H      9.68722     7.07508     4.44033   0.105      259
 H     12.45508     7.48468     2.97202   0.105      260
 H      7.83183     8.37938     3.25318   0.087      261
 H     11.00246     5.90456     4.56335   0.094      263
 H     11.08731     8.73231     3.08460   0.098      264
 C      7.61430     9.52243     5.65798  -0.189      265
 C     14.51714     5.24101     6.87496  -0.201      266
 C     10.76651     7.08206     7.01493  -0.198      267
 C     11.34904     7.74020     5.65358  -0.206      268
 H      8.73336     9.45732     5.65851   0.100      269
 H     13.42174     5.21884     6.83436   0.105      270
 H      9.65804     7.26957     7.14064   0.103      271
 H     12.41343     7.67499     5.61794   0.107      272
 H      7.35233     8.43365     5.69604   0.091      273
 H     11.13679     6.04039     7.03203   0.101      275
 H     11.19511     8.83844     5.56456   0.091      276
 C      7.60874     9.52796     8.27906  -0.194      277
 C     14.50875     5.29808     9.48357  -0.207      278
 C     10.80933     7.05838     9.50487  -0.214      279
 C     11.33451     7.70116     8.22407  -0.195      280
 H      8.74062     9.48081     8.26389   0.096      281
 H     13.44377     5.34363     9.51240   0.110      282
 H      9.73230     7.14978     9.49910   0.101      283
 H     12.44866     7.64290     8.34858   0.104      284
 H      7.36685     8.51749     8.13216   0.100      285
 H     10.81190     6.05127     9.60439   0.101      287
 H     11.04203     8.76130     8.23092   0.098      288
 C      7.64873     9.55073    10.78748  -0.205      289
 C     14.49102     5.33753    12.03293  -0.201      290
 C     10.89338     7.10099    12.05867  -0.194      291
 C     11.45923     7.78947    10.73602  -0.195      292
 H      8.70969     9.64224    10.68188   0.108      293
 H     13.37785     5.24190    11.94705   0.107      294
 H      9.71093     7.14548    11.97368   0.095      295
 H     12.62055     7.83216    10.66474   0.095      296
 H      7.53216     8.48623    10.83869   0.099      297
 H     11.13628     6.05217    12.03685   0.100      299
 H     11.31957     8.88259    10.79649   0.090      300
 C      7.82023    14.45569     0.63004  -0.214      301
 C     14.49667    10.18934     1.92822  -0.189      302
 C     10.79352    11.94173     1.90147  -0.208      303
 C     11.40281    12.67007     0.69751  -0.208      304
 H     13.40223    10.20907     1.97028   0.104      306
 H      9.69697    12.06861     1.79648   0.105      307
 H     12.45475    12.76012     0.66121   0.107      308
 H      7.77069    13.38432     0.67935   0.100      309
 H     11.08831    10.95314     1.84873   0.108      311
 H     11.18370    13.77579     0.75572   0.088      312
 C      7.67748    14.42987     3.20063  -0.190      313
 C     14.34697    10.23133     4.42906  -0.206      314
 C     10.70502    11.82845     4.51388  -0.204      315
 C     11.38096    12.51807     3.19134  -0.207      316
 H     13.29788    10.05216     4.35778   0.109      318
 H      9.60280    11.96885     4.58330   0.104      319
 H     12.49262    12.58304     3.16759   0.096      320
 H      7.38899    13.30422     3.25020   0.087      321
 H     10.93856    10.75554     4.55105   0.093      323
 H     11.05352    13.49268     3.14269   0.106      324
 C      7.63265    14.54733     5.70700  -0.195      325
 C     14.47462    10.20414     7.01847  -0.210      326
 C     10.77221    12.06165     7.02602  -0.193      327
 C     11.30502    12.70310     5.61567  -0.205      328
 H     13.38968     9.97327     6.95948   0.109      330
 H      9.68459    12.16746     7.08696   0.100      331
 H     12.40700    12.64623     5.45662   0.108      332
 H      7.50470    13.45392     5.74732   0.092      333
 H     10.77169    10.96838     6.79425   0.096      335
 H     11.06076    13.71630     5.41863   0.097      336
 C      7.69936    14.43695     8.19871  -0.206      337
 C     14.62633    10.10278     9.48514  -0.205      338
 C     10.77069    12.15425     9.45215  -0.193      339
 C     11.50335    12.67639     8.22218  -0.188      340
 H     13.52008     9.92803     9.46470   0.102      342
 H      9.66610    12.33145     9.43561   0.100      343
 H     12.58772    12.43506     8.30625   0.102      344
 H      7.46298    13.36155     8.25477   0.093      345
 H     10.88259    11.05893     9.59203   0.098      347
 H     11.53271    13.77174     8.11520   0.099      348
 C      7.69545    14.49770    10.78720  -0.191      349
 C     14.48335    10.23476    12.02433  -0.205      350
 C     10.89994    12.09030    11.97069  -0.204      351
 C     11.47410    12.70066    10.72203  -0.211      352
 H     13.43458    10.14778    11.99479   0.107      354
 H      9.81592    12.06322    11.98550   0.104      355
 H     12.50207    12.48364    10.70585   0.112      356
 H      7.43745    13.38259    10.61770   0.093      357
 H     11.07821    11.01987    12.01847   0.095      359
 H     11.30880    13.75597    10.78472   0.106      360
 H      0.37072     8.34491    10.87218   0.085      117
 H      0.15438     8.36425     8.19582   0.088      105
 H     14.66884    11.27992     2.03708   0.093      310
 H      0.11891     8.39738     0.53568   0.088       69
 H      0.17726     3.58701     0.74953   0.099        9
 H      0.39118     3.55519     3.18283   0.097       21
 H     14.61801    11.31193    11.94041   0.096      358
 H      8.79470    14.50227     8.07193   0.105      341
 H     14.67664    11.25445     6.97899   0.101      334
 H      6.09888     0.27928     9.52215   0.111       42
 H      1.27639    14.67279     5.81979   0.105      149
 H      8.72983    14.54467     5.77131   0.099      329
 H      1.38153    14.61571     0.56539   0.110      125
 H      6.06318     0.20587     1.77058   0.105        6
 H      0.18934    13.36733     0.58075   0.099      129
 H      6.00080     0.11436    12.09661   0.099       54
 H      1.43728    14.64928     3.20237   0.106      137
 H      0.22767    13.23974    10.72890   0.095      177
 H     13.35657     0.40902     7.09487   0.106      210
 H      5.95472     0.21719     4.33948   0.111       18
 H      1.35675    14.72897     8.19891   0.105      161
 H      5.91477     0.20380     6.96836   0.102       30
 H      8.75657    14.47773     3.06361   0.105      317
 H      8.89445    14.58505     0.61743   0.100      305
 H     13.27989     0.30606     4.25884   0.094      198
 H     14.55779     6.34826     1.94233   0.093      250
 H      8.77774    14.62966    10.85423   0.109      353
 H      1.44496    14.43392    10.69956   0.103      173
 H     13.47878     0.31788    12.19900   0.106      234
 H     13.46333     0.23210     9.55646   0.105      222
 H     14.57134    11.36734     4.33951   0.089      322
 H     14.76282     6.35644     9.48079   0.095      286
 H     14.63918     1.44122     7.14786   0.089      214
 H     13.46648     0.11700     2.01667   0.103      186
 H     14.73737     1.42187     4.28255   0.103      202
 H      0.07190     1.37982    12.01343   0.093      238
 H     14.72917     6.38311    12.12462   0.096      298
 H     14.67868     6.36643     4.46869   0.091      262
 H      0.05729     8.43545     5.85118   0.090       93
 H      0.07237     3.42366     5.72962   0.094       33
 H     14.64724    11.12818     9.40166   0.104      346
 H      0.23920     3.52453     8.22848   0.095       45
 H      0.03577     3.45177    10.68476   0.086       57
 H      0.06998     1.40749     1.88454   0.092      190
 H     14.73683    13.47123     5.67875   0.101      153
 H      0.13215    13.32123     8.16985   0.096      165
 H     14.77265     1.24260     9.55617   0.097      226
 H     14.75135     8.52810     3.35099   0.101       81
 H      0.02044     6.28708     6.84476   0.096      274
 H     14.79402    13.46786     3.21832   0.101      141
