      360
    14.80000    14.79000    12.67000  90.000  90.000  90.000
 C      0.24835     4.64082     0.66065  -0.208        1
 C      7.06869     0.31018     1.95828  -0.208        2
 C      3.38264     2.28565     1.91643  -0.189        3
 C      3.95448     2.76438     0.59479  -0.204        4
 H      1.27211     4.93596     0.62084   0.108        5
 H      2.29477     2.50112     1.85188   0.101        7
 H      5.11875     2.64350     0.47301   0.100        8
 H      7.08735     1.33180     1.93448   0.106       10
 H      3.51875     1.14470     1.85564   0.094       11
 H      3.57188     3.74956     0.42326   0.104       12
 C      0.40689     4.61618     3.23038  -0.202       13
 C      7.06212     0.32075     4.42466  -0.205       14
 C      3.41461     2.35515     4.47137  -0.201       15
 C      4.06882     2.85690     3.11139  -0.216       16
 H      1.51776     4.77462     3.33994   0.098       17
 H      2.29665     2.59733     4.46250   0.099       19
 H      5.14238     2.61188     3.09570   0.105       20
 H      7.26107     1.38608     4.51643   0.096       22
 H      3.46572     1.27049     4.36389   0.103       23
 H      4.03325     3.86059     3.05183   0.111       24
 C      0.31590     4.67377     5.69785  -0.194       25
 C      7.08739     0.34052     6.93889  -0.190       26
 C      3.34911     2.03129     6.99292  -0.190       27
 C      4.09429     2.81743     5.81896  -0.200       28
 H      1.41773     4.77325     5.82353   0.099       29
 H      2.21927     2.24308     6.94901   0.108       31
 H      5.17975     2.57955     5.66708   0.100       32
 H      7.19889     1.46734     6.81431   0.086       34
 H      3.71427     0.98423     6.98739   0.097       35
 H      3.96202     3.94259     5.82297   0.095       36
 C      0.25102     4.53715     8.18937  -0.223       37
 C      6.96041     0.29165     9.49727  -0.209       38
 C      3.34222     2.07573     9.55629  -0.196       39
 C      3.93092     2.74794     8.19190  -0.199       40
 H      1.27466     4.65016     8.21588   0.117       41
 H      2.28499     2.23278     9.75807   0.108       43
 H      5.00042     2.73459     8.14899   0.106       44
 H      7.06926     1.36921     9.47714   0.104       46
 H      3.53008     0.99444     9.61367   0.097       47
 H      3.73385     3.81264     8.21642   0.095       48
 C      0.27990     4.69757    10.79874  -0.199       49
 C      7.05561     0.33622    12.03451  -0.202       50
 C      3.33256     2.12637    11.92602  -0.222       51
 C      4.00011     2.75230    10.70240  -0.207       52
 H      1.35771     4.81903    10.83923   0.099       53
 H      2.21354     2.37959    11.85091   0.095       55
 H      5.02372     2.64830    10.76480   0.112       56
 H      7.20627     1.40352    11.96820   0.099       58
 H      3.39758     1.12891    11.86706   0.110       59
 H      3.76248     3.82402    10.88720   0.093       60
 C      0.30107     9.44403     0.70045  -0.196       61
 C      7.09396     5.23165     1.88730  -0.191       62
 C      3.32896     7.08275     1.90292  -0.212       63
 C      3.99093     7.64874     0.59144  -0.180       64
 H      1.45951     9.57206     0.73051   0.098       65
 H      5.97467     5.13876     1.80834   0.102       66
 H      2.30831     7.41620     1.85937   0.110       67
 H      5.15815     7.31661     0.65973   0.094       68
 H      7.17802     6.31531     1.78172   0.097       70
 H      3.33913     6.01019     1.81389   0.100       71
 H      3.89847     8.78569     0.57047   0.094       72
 C      0.26302     9.66946     3.18741  -0.191       73
 C      7.09661     5.34434     4.46727  -0.194       74
 C      3.35526     7.12246     4.46044  -0.196       75
 C      4.05725     7.70555     3.18500  -0.201       76
 H      1.40779     9.70359     3.24423   0.097       77
 H      5.98925     5.31569     4.62766   0.104       78
 H      2.23594     7.28698     4.52726   0.099       79
 H      5.08696     7.43830     3.28742   0.109       80
 H      7.38684     6.41769     4.63573   0.092       82
 H      3.39327     6.01522     4.32636   0.096       83
 H      4.07393     8.81854     3.25842   0.095       84
 C      0.35762     9.61667     5.67112  -0.199       85
 C      7.13071     5.13248     7.00972  -0.195       86
 C      3.41933     7.12080     7.03176  -0.199       87
 C      4.11391     7.70146     5.74746  -0.192       88
 H      1.44587     9.83742     5.76795   0.100       89
 H      6.03970     4.94402     7.17888   0.099       90
 H      2.32758     7.15224     6.95196   0.101       91
 H      5.17766     7.35094     5.84597   0.101       92
 H      7.14867     6.29510     6.90864   0.087       94
 H      3.50196     6.04913     7.04998   0.096       95
 H      3.93852     8.87402     5.85274   0.092       96
 C      0.28540     9.60794     8.20404  -0.210       97
 C      6.98271     5.15988     9.44944  -0.203       98
 C      3.45710     6.97558     9.49600  -0.194       99
 C      3.97734     7.77614     8.19689  -0.170      100
 H      1.35810     9.73220     8.29357   0.104      101
 H      5.90912     4.82476     9.37253   0.094      102
 H      2.29372     7.03340     9.60349   0.098      103
 H      5.15414     7.73133     8.20486   0.093      104
 H      6.85912     6.18417     9.40370   0.103      106
 H      3.80292     5.89834     9.55647   0.090      107
 H      3.76348     8.99392     8.19076   0.077      108
 C      0.36006     9.53812    10.69048  -0.197      109
 C      7.09410     5.14812    12.05780  -0.211      110
 C      3.33216     7.14068    12.05350  -0.199      111
 C      4.01238     7.73045    10.71625  -0.210      112
 H      1.42782     9.75621    10.73263   0.100      113
 H      6.00112     5.01607    12.01365   0.103      114
 H      2.24119     7.37073    11.99631   0.101      115
 H      5.04803     7.83870    10.72098   0.108      116
 H      7.17284     6.15947    12.07643   0.108      118
 H      3.47725     6.03945    11.99656   0.096      119
 H      3.67534     8.78982    10.60628   0.094      120
 C      0.38934    14.43653     0.65666  -0.205      121
 C      7.07359    10.08023     1.92389  -0.204      122
 C      3.32280    12.01437     1.92019  -0.184      123
 C      3.98531    12.58306     0.64947  -0.194      124
 H      6.05919     9.69039     2.06030   0.107      126
 H      2.19030    12.31911     1.80560   0.097      127
 H      4.98132    12.28296     0.69365   0.111      128
 H      7.08087    11.17603     1.95549   0.098      130
 H      3.31107    10.83341     1.93605   0.088      131
 H      3.90427    13.80201     0.70928   0.085      132
 C      0.33370    14.43415     3.15046  -0.202      133
 C      7.14300    10.14047     4.38595  -0.205      134
 C      3.29051    12.03278     4.44049  -0.194      135
 C      4.05523    12.54920     3.12755  -0.201      136
 H      6.06288     9.94334     4.38250   0.105      138
 H      2.26535    12.37401     4.50788   0.103      139
 H      5.04564    12.20412     2.89275   0.104      140
 H      7.15958    11.23142     4.45255   0.095      142
 H      3.17702    10.88320     4.44764   0.091      143
 H      4.15744    13.65223     3.14236   0.095      144
 C      0.37215    14.50126     5.61615  -0.198      145
 C      7.12280    10.16965     6.94016  -0.197      146
 C      3.47360    11.96298     6.93950  -0.199      147
 C      3.99631    12.59057     5.66539  -0.192      148
 H      6.01357    10.09325     6.90256   0.102      150
 H      2.40651    11.80744     6.89444   0.103      151
 H      5.13030    12.55140     5.45640   0.099      152
 H      7.32208    11.23739     6.83131   0.099      154
 H      3.79297    10.86450     6.87142   0.089      155
 H      3.92117    13.66503     5.71093   0.096      156
 C      0.33545    14.58445     8.20983  -0.197      157
 C      7.19662    10.16972     9.47048  -0.198      158
 C      3.43929    12.12063     9.52046  -0.212      159
 C      4.05511    12.68704     8.28578  -0.197      160
 H      6.07576    10.09752     9.57514   0.102      162
 H      2.46440    12.19690     9.60051   0.116      163
 H      5.16752    12.67180     8.28877   0.105      164
 H      7.35164    11.23170     9.36327   0.098      166
 H      3.53881    11.03868     9.57613   0.099      167
 H      3.82670    13.75056     8.16485   0.097      168
 C      0.31243    14.48749    10.81155  -0.192      169
 C      7.05351    10.13109    11.99196  -0.200      170
 C      3.32400    11.87624    12.07312  -0.208      171
 C      4.10260    12.62985    10.83957  -0.211      172
 H      6.01758     9.98671    11.93708   0.107      174
 H      2.22020    11.94787    12.03734   0.100      175
 H      5.14545    12.36818    10.80656   0.106      176
 H      7.16246    11.24693    11.90737   0.094      178
 H      3.47068    10.85511    12.19298   0.098      179
 H      4.04885    13.66781    10.72923   0.106      180
 C      7.72119     4.57152     0.61931  -0.200      181
 C     14.44198     0.29616     1.91355  -0.188      182
 C     10.88439     2.11260     1.92881  -0.187      183
 C     11.38364     2.77442     0.67203  -0.191      184
 H      8.81690     4.64611     0.54253   0.102      185
 H      9.74608     1.96689     2.01618   0.099      187
 H     12.48218     2.75726     0.58639   0.104      188
 H      7.67266     3.50781     0.53903   0.099      189
 H     11.12583     1.04168     2.07287   0.091      191
 H     11.20792     3.84331     0.67499   0.097      192
 C      7.66820     4.64484     3.19399  -0.182      193
 C     14.46102     0.27834     4.43576  -0.194      194
 C     10.84165     2.18786     4.41674  -0.197      195
 C     11.46087     2.88696     3.20970  -0.184      196
 H      8.78920     4.55007     3.28508   0.102      197
 H      9.71467     2.30474     4.51649   0.097      199
 H     12.61546     2.85844     3.22478   0.097      200
 H      7.45571     3.55354     3.28446   0.095      201
 H     10.97946     1.12857     4.37480   0.099      203
 H     11.31504     4.06396     3.29405   0.083      204
 C      7.72293     4.57434     5.67301  -0.210      205
 C     14.45109     0.35431     6.92558  -0.204      206
 C     10.74366     2.02819     6.94727  -0.208      207
 C     11.50912     2.68078     5.75538  -0.206      208
 H      8.80783     4.69128     5.85566   0.104      209
 H      9.69242     2.28167     6.70203   0.103      211
 H     12.53751     2.37845     5.85222   0.106      212
 H      7.52013     3.52855     5.73694   0.097      213
 H     10.75153     0.95550     6.93218   0.097      215
 H     11.44985     3.79791     5.84427   0.096      216
 C      7.80677     4.64403     8.26075  -0.198      217
 C     14.50413     0.40620     9.52335  -0.218      218
 C     10.67788     2.09635     9.51507  -0.189      219
 C     11.38034     2.69991     8.27795  -0.213      220
 H      8.82209     5.01985     8.25507   0.103      221
 H      9.55318     2.30613     9.50149   0.098      223
 H     12.42032     2.58827     8.26547   0.109      224
 H      7.80478     3.51442     8.23773   0.097      225
 H     10.72734     1.01194     9.52680   0.098      227
 H     11.20222     3.70917     8.19190   0.105      228
 C      7.78670     4.62511    10.73014  -0.197      229
 C     14.51189     0.24717    12.05454  -0.181      230
 C     10.70370     2.15746    12.10273  -0.203      231
 C     11.43669     2.65425    10.74333  -0.211      232
 H      8.89687     4.82024    10.72232   0.094      233
 H      9.64707     2.53710    11.94619   0.101      235
 H     12.42948     2.23844    10.76608   0.109      236
 H      7.84157     3.53625    10.77762   0.095      237
 H     10.69328     1.05970    12.09230   0.099      239
 H     11.48368     3.74656    10.75035   0.102      240
 C      7.72012     9.59675     0.57473  -0.191      241
 C     14.46692     5.24458     1.91559  -0.190      242
 C     10.78774     7.22547     1.78004  -0.211      243
 C     11.52491     7.81073     0.54657  -0.192      244
 H      8.80716     9.85124     0.50129   0.103      245
 H     13.37390     4.98561     1.95031   0.102      246
 H      9.76879     7.48504     1.76154   0.112      247
 H     12.62111     7.70495     0.58485   0.096      248
 H      7.69440     8.47451     0.49637   0.096      249
 H     10.90429     6.15269     1.74509   0.105      251
 H     11.60674     8.88868     0.68719   0.091      252
 C      7.78980     9.62296     3.14260  -0.192      253
 C     14.42358     5.20682     4.38073  -0.204      254
 C     10.78050     7.16985     4.32844  -0.196      255
 C     11.38148     7.71700     3.16792  -0.191      256
 H      8.83987     9.93082     3.13646   0.103      257
 H     13.35407     4.88490     4.40676   0.101      258
 H      9.69988     7.33646     4.26686   0.105      259
 H     12.42953     7.77991     3.25634   0.105      260
 H      7.77603     8.47465     3.16623   0.095      261
 H     10.76845     6.08194     4.31565   0.099      263
 H     11.30774     8.89510     3.22929   0.083      264
 C      7.76160     9.55915     5.71798  -0.193      265
 C     14.48772     5.22058     6.92618  -0.195      266
 C     10.84802     7.05722     7.00741  -0.194      267
 C     11.43191     7.63396     5.67692  -0.209      268
 H      8.88259     9.71682     5.63252   0.103      269
 H     13.40382     5.04415     6.97436   0.105      270
 H      9.72789     6.99622     7.11478   0.099      271
 H     12.45645     7.43595     5.62026   0.108      272
 H      7.62813     8.42011     5.76704   0.091      273
 H     10.94637     5.97821     7.03827   0.093      275
 H     11.44318     8.73926     5.77175   0.094      276
 C      7.66725     9.52344     8.22220  -0.204      277
 C     14.53234     5.27336     9.51499  -0.193      278
 C     10.79059     7.02120     9.57895  -0.198      279
 C     11.35561     7.63136     8.22685  -0.197      280
 H      8.74258     9.53363     8.29314   0.110      281
 H     13.40940     5.20867     9.44905   0.106      282
 H      9.64670     7.17988     9.61634   0.096      283
 H     12.47485     7.61243     8.21030   0.102      284
 H      7.44383     8.49690     8.15348   0.099      285
 H     10.78433     5.93906     9.60058   0.093      287
 H     11.21889     8.68970     8.12014   0.098      288
 C      7.74587     9.45408    10.75549  -0.217      289
 C     14.35555     5.22866    12.05493  -0.200      290
 C     10.81935     7.14066    12.06037  -0.195      291
 C     11.49369     7.69626    10.83251  -0.187      292
 H      8.78707     9.53457    10.70881   0.114      293
 H     13.29560     5.20897    12.11125   0.103      294
 H      9.76987     7.27993    11.99901   0.105      295
 H     12.60298     7.39168    10.90146   0.099      296
 H      7.53036     8.41667    10.60271   0.099      297
 H     10.79421     6.06421    12.08148   0.093      299
 H     11.56564     8.80782    10.88668   0.095      300
 C      7.68655    14.53429     0.65495  -0.195      301
 C     14.49587    10.28212     1.88393  -0.197      302
 C     10.78518    12.04628     1.92115  -0.190      303
 C     11.43058    12.72297     0.66280  -0.215      304
 H     13.37176    10.25858     1.83090   0.099      306
 H      9.61000    12.12769     1.82666   0.094      307
 H     12.42806    12.52150     0.54338   0.113      308
 H      7.62093    13.38905     0.64227   0.092      309
 H     10.90717    11.00828     1.99835   0.096      311
 H     11.38755    13.80364     0.53938   0.100      312
 C      7.79130    14.51543     3.16255  -0.194      313
 C     14.42101    10.28163     4.43495  -0.194      314
 C     10.75230    12.02176     4.46450  -0.200      315
 C     11.31182    12.73662     3.15443  -0.204      316
 H     13.31166    10.10555     4.51533   0.099      318
 H      9.63013    12.07629     4.44114   0.103      319
 H     12.44670    12.60269     3.20233   0.108      320
 H      7.66201    13.42575     3.06499   0.098      321
 H     10.97667    10.94444     4.32571   0.094      323
 H     11.02738    13.74529     3.21013   0.103      324
 C      7.71858    14.44282     5.70609  -0.210      325
 C     14.51058    10.18943     6.95750  -0.195      326
 C     10.66491    12.02393     6.93043  -0.207      327
 C     11.37316    12.58526     5.72956  -0.186      328
 H     13.42247     9.94671     6.92791   0.102      330
 H      9.69188    12.45303     7.00466   0.108      331
 H     12.49878    12.33136     5.76390   0.096      332
 H      7.59666    13.36324     5.67041   0.097      333
 H     10.74063    10.91358     6.91047   0.101      335
 H     11.36960    13.68948     5.74179   0.094      336
 C      7.65811    14.52401     8.23473  -0.187      337
 C     14.38371    10.09365     9.51822  -0.190      338
 C     10.84851    11.96448     9.51900  -0.202      339
 C     11.47438    12.51696     8.24272  -0.214      340
 H     13.25014     9.75984     9.41110   0.092      342
 H      9.84878    12.30227     9.51599   0.113      343
 H     12.52053    12.27040     8.08962   0.102      344
 H      7.59380    13.38674     8.22535   0.088      345
 H     10.94424    10.86158     9.38460   0.100      347
 H     11.43272    13.59671     8.35555   0.098      348
 C      7.67793    14.50871    10.79495  -0.194      349
 C     14.55700    10.02036    12.04640  -0.201      350
 C     10.72787    12.17790    12.05353  -0.203      351
 C     11.50492    12.62297    10.79612  -0.200      352
 H     13.49318     9.88137    12.08813   0.107      354
 H      9.64446    12.38929    12.12466   0.102      355
 H     12.58106    12.59912    10.81407   0.098      356
 H      7.48179    13.38127    10.75329   0.091      357
 H     10.95232    11.12330    12.15574   0.109      359
 H     11.51581    13.72674    10.67964   0.090      360
 H      0.33669     8.41386    10.71734   0.094      117
 H      0.24638     8.56245     8.26591   0.102      105
 H     14.63283    11.28931     7.01541   0.096      334
 H     14.46377     1.31923     4.36308   0.102      202
 H     14.34388     6.36316    12.12736   0.089      298
 H     14.43941     6.21771     4.31356   0.109      262
 H      0.24177     8.48698     5.64926   0.093       93
 H      0.18677     3.57496     5.72678   0.097       33
 H     14.24279    11.16685     9.42331   0.097      346
 H     14.69583     6.32782     6.99336   0.095      274
 H     14.76314     6.38587     9.48424   0.091      286
 H      0.04013    13.51309     8.44860   0.094      165
 H      0.49178    13.48436     5.62289   0.100      153
 H      0.22673     3.63948    10.93808   0.100       57
 H     14.71479    11.35487     1.77311   0.093      310
 H      0.18201     8.62223     3.15106   0.101       81
 H      0.26189    13.33959    10.76576   0.088      177
 H      0.22647    13.34506     3.08590   0.097      141
 H      0.26047     3.56268     0.63433   0.097        9
 H     14.75672    11.14439    12.03602   0.096      358
 H     14.45709     1.34785    12.02108   0.095      238
 H     14.55676     1.46188     2.04771   0.087      190
 H      1.41086    14.63876     3.07984   0.104      137
 H     14.64424     1.45337     9.46269   0.104      226
 H     14.47325     6.38654     1.86415   0.090      250
 H      0.37437    13.36602     0.68917   0.097      129
 H      0.40484     3.57611     3.17903   0.099       21
 H      6.01639     0.21490     4.56278   0.105       18
 H     14.70341    11.38332     4.42110   0.097      322
 H      8.86089    14.65937     3.16707   0.102      317
 H      8.75025    14.51323     8.22257   0.097      341
 H     14.46626     1.46378     6.86763   0.097      214
 H      5.95625     0.21635    12.11821   0.104       54
 H      5.96792     0.38754     6.92119   0.098       30
 H     13.44244     0.15003     9.38927   0.105      222
 H      5.98696     0.09118     1.92501   0.102        6
 H      8.76718    14.61424     5.83765   0.107      329
 H      1.40067    14.71807    10.75104   0.106      173
 H      0.06412     8.33670     0.73258   0.089       69
 H      1.44211    14.65936     0.72616   0.106      125
 H     13.35538     0.08861     4.54307   0.100      198
 H      8.76677    14.53196    10.85578   0.102      353
 H      1.40578    14.41400     8.14815   0.106      161
 H     13.33081     0.25288     1.88360   0.102      186
 H      1.49858    14.66610     5.57680   0.098      149
 H     14.74410     3.49650     8.27769   0.100       45
 H      5.93810     0.11887     9.58077   0.110       42
 H     13.44511    14.77498     6.94124   0.107      210
 H     13.36589    14.77093    12.00329   0.095      234
 H      8.77198     0.00489     0.63017   0.105      305
