      360
    14.80000    14.79000    12.67000  90.000  90.000  90.000
 C      0.35820     4.65519     0.69144  -0.207        1
 C      7.03612     0.33593     1.90467  -0.183        2
 C      3.35649     2.08332     1.88852  -0.186        3
 C      4.03600     2.77861     0.74453  -0.189        4
 H      1.37638     4.85776     0.76686   0.110        5
 H      2.22940     2.24731     1.85157   0.102        7
 H      5.19729     2.55893     0.74515   0.094        8
 H      7.00841     1.48252     1.96153   0.086       10
 H      3.39558     0.99491     1.89148   0.096       11
 H      3.98631     3.87122     0.76584   0.094       12
 C      0.30862     4.74138     3.18120  -0.186       13
 C      7.07627     0.33855     4.44459  -0.203       14
 C      3.32662     2.10560     4.47493  -0.196       15
 C      4.03415     2.72783     3.11758  -0.187       16
 H      1.50428     5.05807     3.15403   0.089       17
 H      2.23226     2.33891     4.69612   0.098       19
 H      5.20887     2.65484     3.13662   0.091       20
 H      7.02671     1.42910     4.47769   0.097       22
 H      3.36832     1.01740     4.54725   0.098       23
 H      3.96366     3.82825     3.16993   0.094       24
 C      0.34088     4.61169     5.66991  -0.198       25
 C      7.07713     0.33650     6.96659  -0.197       26
 C      3.44605     2.19281     6.94962  -0.200       27
 C      4.05296     2.72381     5.60080  -0.188       28
 H      1.37142     4.85489     5.76667   0.109       29
 H      2.32753     2.19186     6.98939   0.094       31
 H      5.20196     2.66166     5.54411   0.095       32
 H      7.19200     1.45336     7.10809   0.095       34
 H      3.50870     1.12993     7.00189   0.097       35
 H      3.96259     3.82872     5.55651   0.093       36
 C      0.31772     4.56704     8.23421  -0.202       37
 C      7.10319     0.21253     9.54917  -0.185       38
 C      3.36648     2.25399     9.52830  -0.204       39
 C      4.08126     2.81148     8.22877  -0.208       40
 H      1.40271     4.84180     8.24373   0.104       41
 H      2.30074     2.39431     9.48004   0.102       43
 H      5.13797     2.66649     8.26241   0.106       44
 H      7.08272     1.37638     9.48528   0.090       46
 H      3.36201     1.17650     9.46518   0.098       47
 H      3.99131     3.88938     8.17312   0.097       48
 C      0.32089     4.60956    10.71941  -0.194       49
 C      7.09681     0.22863    11.98556  -0.204       50
 C      3.31316     2.20415    12.02376  -0.208       51
 C      4.04581     2.70931    10.81878  -0.195       52
 H      1.39934     4.71294    10.73235   0.109       53
 H      2.21291     2.34064    11.85148   0.098       55
 H      5.07006     2.48171    10.78814   0.107       56
 H      7.09526     1.37277    12.02287   0.094       58
 H      3.21849     1.19015    12.05915   0.105       59
 H      4.03712     3.83001    10.97761   0.097       60
 C      0.35010     9.60383     0.65438  -0.198       61
 C      7.07118     5.20680     1.85196  -0.212       62
 C      3.38464     7.13238     1.86403  -0.185       63
 C      3.98762     7.70592     0.58087  -0.198       64
 H      1.33923     9.85114     0.69086   0.110       65
 H      6.01617     5.00430     1.76327   0.106       66
 H      2.26972     7.35231     1.87238   0.099       67
 H      5.01515     7.42904     0.50953   0.107       68
 H      7.14046     6.27555     1.81222   0.101       70
 H      3.49348     5.96430     1.81303   0.088       71
 H      4.02208     8.85806     0.56668   0.089       72
 C      0.35665     9.58223     3.13964  -0.201       73
 C      7.08331     5.24703     4.43237  -0.200       74
 C      3.31053     7.13305     4.40751  -0.217       75
 C      4.10516     7.60928     3.11720  -0.196       76
 H      1.43580     9.78806     3.16930   0.103       77
 H      6.00955     5.05939     4.55117   0.103       78
 H      2.32669     7.55881     4.41219   0.110       79
 H      5.14586     7.40788     3.07380   0.105       80
 H      7.21284     6.35270     4.45495   0.095       82
 H      3.30727     6.08002     4.41038   0.107       83
 H      4.05411     8.81682     3.09979   0.088       84
 C      0.36556     9.59281     5.66208  -0.188       85
 C      7.11994     5.17619     6.91739  -0.184       86
 C      3.40439     7.02406     7.00793  -0.196       87
 C      3.99979     7.63238     5.71132  -0.204       88
 H      1.46595     9.77490     5.96049   0.098       89
 H      6.03602     4.85067     6.88225   0.100       90
 H      2.30564     7.11733     7.07647   0.103       91
 H      5.09219     7.43152     5.50785   0.103       92
 H      7.15463     6.32731     6.94244   0.091       94
 H      3.70497     5.94417     7.06163   0.094       95
 H      3.94649     8.66189     5.70487   0.106       96
 C      0.38985     9.59539     8.26968  -0.185       97
 C      6.88337     5.23484     9.53002  -0.225       98
 C      3.40802     7.10558     9.47777  -0.193       99
 C      4.07498     7.72321     8.26235  -0.211      100
 H      1.49151     9.87763     8.30744   0.095      101
 H      5.90419     4.87557     9.39235   0.109      102
 H      2.32385     7.35171     9.42225   0.104      103
 H      5.16303     7.57603     8.21273   0.105      104
 H      6.84296     6.29583     9.51112   0.103      106
 H      3.60190     5.98425     9.37757   0.096      107
 H      3.93212     8.76087     8.32293   0.102      108
 C      0.26408     9.54993    10.76707  -0.191      109
 C      7.04067     5.22644    12.10371  -0.192      110
 C      3.26874     7.09757    12.03958  -0.200      111
 C      4.01573     7.66836    10.81340  -0.207      112
 H      1.39231     9.66725    10.78470   0.100      113
 H      5.94461     4.96537    11.99011   0.101      114
 H      2.18451     7.32923    12.06587   0.103      115
 H      5.05003     7.40836    10.88128   0.108      116
 H      7.15933     6.33217    12.06982   0.095      118
 H      3.29348     6.02019    12.07459   0.099      119
 H      3.89600     8.74320    10.78065   0.101      120
 C      0.29122    14.46869     0.62854  -0.202      121
 C      7.09192    10.07249     1.90880  -0.189      122
 C      3.40971    12.13074     1.86288  -0.208      123
 C      4.15410    12.67323     0.58003  -0.201      124
 H      6.04342     9.85961     1.97947   0.108      126
 H      2.39773    12.37596     1.83071   0.108      127
 H      5.21154    12.34702     0.47389   0.101      128
 H      7.15856    11.21241     1.84021   0.093      130
 H      3.34252    11.04434     1.89324   0.099      131
 H      4.22273    13.79622     0.59479   0.093      132
 C      0.23982    14.58026     3.13184  -0.198      133
 C      7.00310    10.16873     4.44140  -0.208      134
 C      3.36228    12.00681     4.39730  -0.204      135
 C      4.02499    12.64166     3.19469  -0.184      136
 H      6.00189     9.95438     4.43620   0.113      138
 H      2.35136    12.25532     4.61862   0.107      139
 H      5.17201    12.52596     3.05800   0.097      140
 H      7.05203    11.30160     4.46560   0.093      142
 H      3.24177    10.96614     4.37955   0.099      143
 H      4.11756    13.70233     3.16405   0.096      144
 C      0.40938    14.49768     5.69863  -0.203      145
 C      7.08270    10.16836     6.95500  -0.191      146
 C      3.40233    12.03089     6.98447  -0.205      147
 C      4.07531    12.57255     5.66853  -0.193      148
 H      5.96999    10.03187     6.85828   0.102      150
 H      2.29510    12.19747     7.02001   0.099      151
 H      5.22387    12.40224     5.76304   0.097      152
 H      7.22980    11.28020     6.88814   0.094      154
 H      3.46416    10.96530     6.94737   0.099      155
 H      3.93014    13.68001     5.69151   0.098      156
 C      0.35763    14.47224     8.27198  -0.194      157
 C      7.06974    10.21835     9.53674  -0.197      158
 C      3.34018    11.96634     9.49687  -0.203      159
 C      4.01922    12.65433     8.25852  -0.186      160
 H      5.92887    10.08746     9.47531   0.099      162
 H      2.29265    12.06021     9.40123   0.108      163
 H      5.14701    12.45118     8.29857   0.095      164
 H      7.18713    11.29388     9.46519   0.097      166
 H      3.48267    10.82880     9.48594   0.088      167
 H      4.16198    13.78824     8.32547   0.084      168
 C      0.38494    14.49121    10.82787  -0.204      169
 C      6.99811    10.09535    12.10862  -0.204      170
 C      3.34072    12.05568    12.04055  -0.192      171
 C      3.91418    12.56339    10.77070  -0.176      172
 H      5.92934     9.77498    12.02998   0.101      174
 H      2.28127    12.30773    12.14266   0.101      175
 H      5.05159    12.28496    10.76528   0.098      176
 H      6.92195    11.17030    12.07144   0.098      178
 H      3.30648    10.88189    12.14960   0.086      179
 H      3.83705    13.72442    10.76503   0.090      180
 C      7.78021     4.57757     0.61410  -0.204      181
 C     14.42060     0.38913     1.86575  -0.191      182
 C     10.74085     2.16359     1.91571  -0.196      183
 C     11.39797     2.78310     0.64003  -0.212      184
 H      8.80398     4.90675     0.70068   0.108      185
 H      9.68120     2.36370     1.85339   0.105      187
 H     12.43434     2.67633     0.67654   0.111      188
 H      7.65788     3.48886     0.71925   0.097      189
 H     10.73218     1.04238     1.88711   0.091      191
 H     11.20001     3.83611     0.58865   0.101      192
 C      7.74568     4.67928     3.17509  -0.195      193
 C     14.42076     0.29668     4.43401  -0.191      194
 C     10.74824     2.05919     4.40801  -0.195      195
 C     11.38262     2.71544     3.18592  -0.195      196
 H      8.78880     4.91507     3.08696   0.104      197
 H      9.64511     2.27658     4.43511   0.105      199
 H     12.48293     2.50601     3.21780   0.102      200
 H      7.70971     3.54077     3.12470   0.093      201
 H     10.96145     0.93544     4.26605   0.092      203
 H     11.33228     3.81214     3.23433   0.094      204
 C      7.76676     4.58712     5.71990  -0.195      205
 C     14.60530     0.23976     7.00274  -0.187      206
 C     10.79833     2.25881     6.94898  -0.196      207
 C     11.43812     2.71008     5.67513  -0.198      208
 H      8.89113     4.72854     5.70807   0.100      209
 H      9.80201     2.66466     7.00385   0.107      211
 H     12.51977     2.56604     5.73506   0.105      212
 H      7.65176     3.46623     5.65833   0.092      213
 H     10.62494     1.15920     7.03850   0.095      215
 H     11.35251     3.79117     5.56308   0.096      216
 C      7.70035     4.66873     8.24406  -0.208      217
 C     14.43303     0.25337     9.52087  -0.202      218
 C     10.76435     2.31811     9.54120  -0.201      219
 C     11.59466     2.73916     8.23126  -0.215      220
 H      8.70779     5.10459     8.41007   0.104      221
 H      9.75268     2.68275     9.51439   0.106      223
 H     12.60090     2.34788     8.22812   0.103      224
 H      7.68581     3.55773     8.29744   0.095      225
 H     10.75582     1.23154     9.43821   0.103      227
 H     11.81397     3.79037     8.24320   0.102      228
 C      7.61213     4.77573    10.77444  -0.177      229
 C     14.45794     0.27184    11.98814  -0.187      230
 C     10.76839     2.12912    12.04114  -0.199      231
 C     11.41067     2.85360    10.74226  -0.198      232
 H      8.73191     5.10549    10.65454   0.095      233
 H      9.66783     2.32070    12.07639   0.105      235
 H     12.50009     2.63842    10.68606   0.104      236
 H      7.68794     3.59498    10.68455   0.090      237
 H     10.92909     1.02226    12.01596   0.095      239
 H     11.31670     3.93409    10.78026   0.096      240
 C      7.77730     9.49538     0.67927  -0.193      241
 C     14.41554     5.19126     1.84248  -0.210      242
 C     10.76439     7.11711     1.91761  -0.179      243
 C     11.36187     7.63868     0.67479  -0.196      244
 H      8.92110     9.72103     0.62841   0.094      245
 H     13.37759     4.86725     1.85466   0.106      246
 H      9.61234     7.34256     1.91501   0.094      247
 H     12.51030     7.39141     0.58971   0.094      248
 H      7.77478     8.42540     0.61717   0.096      249
 H     10.76367     5.98376     2.11352   0.090      251
 H     11.44332     8.68836     0.56267   0.096      252
 C      7.72967     9.54142     3.17960  -0.192      253
 C     14.43199     5.28545     4.46613  -0.185      254
 C     10.73244     7.04341     4.50733  -0.205      255
 C     11.43232     7.69554     3.17138  -0.202      256
 H      8.80329     9.76822     3.26069   0.104      257
 H     13.34576     5.12839     4.44570   0.101      258
 H      9.66680     7.21721     4.51194   0.104      259
 H     12.60808     7.44944     3.17006   0.095      260
 H      7.73885     8.38712     3.25792   0.089      261
 H     10.85863     5.94952     4.46409   0.093      263
 H     11.37751     8.73452     3.08215   0.103      264
 C      7.71466     9.60141     5.67186  -0.187      265
 C     14.49329     5.22813     6.97742  -0.196      266
 C     10.76345     7.07138     7.01314  -0.204      267
 C     11.42429     7.65544     5.72998  -0.190      268
 H      8.84022     9.75936     5.61398   0.097      269
 H     13.39282     5.09083     6.91958   0.103      270
 H      9.68257     7.20289     7.05654   0.101      271
 H     12.52051     7.48284     5.73485   0.101      272
 H      7.80238     8.46414     5.70805   0.089      273
 H     10.82884     5.99918     6.93888   0.097      275
 H     11.31052     8.77423     5.75807   0.093      276
 C      7.70863     9.56483     8.24219  -0.201      277
 C     14.50483     5.21100     9.50086  -0.196      278
 C     10.81812     7.16491     9.50957  -0.208      279
 C     11.47253     7.76559     8.13201  -0.196      280
 H      8.81205     9.59285     8.38382   0.102      281
 H     13.46158     5.03191     9.56881   0.109      282
 H      9.80376     7.41611     9.36124   0.108      283
 H     12.55131     7.46087     8.09672   0.104      284
 H      7.49944     8.49823     8.29784   0.097      285
 H     10.87990     6.11109     9.39429   0.102      287
 H     11.42170     8.88887     7.95026   0.091      288
 C      7.68782     9.59215    10.77380  -0.204      289
 C     14.49686     5.17766    12.01425  -0.197      290
 C     10.69900     7.12098    11.98586  -0.210      291
 C     11.47325     7.64705    10.73570  -0.191      292
 H      8.72144     9.80215    10.80288   0.108      293
 H     13.36147     5.06279    12.16373   0.093      294
 H      9.60884     7.45611    12.00719   0.100      295
 H     12.55652     7.42440    10.82144   0.098      296
 H      7.68253     8.48921    10.77956   0.095      297
 H     10.81043     6.04130    11.97277   0.103      299
 H     11.45458     8.74154    10.85796   0.098      300
 C      7.75989    14.53128     0.69422  -0.194      301
 C     14.47779    10.16093     1.91326  -0.202      302
 C     10.71650    11.98780     1.88253  -0.211      303
 C     11.30162    12.58702     0.66776  -0.200      304
 H     13.43191     9.89009     1.86357   0.103      306
 H      9.59802    12.05590     1.85110   0.098      307
 H     12.33974    12.24970     0.70915   0.112      308
 H      7.77677    13.40432     0.59551   0.092      309
 H     10.82710    10.95013     1.77114   0.101      311
 H     11.05911    13.66356     0.72783   0.102      312
 C      7.71964    14.52759     3.09967  -0.189      313
 C     14.51747    10.18800     4.42323  -0.202      314
 C     10.81217    12.08083     4.40327  -0.198      315
 C     11.42191    12.63051     3.18449  -0.188      316
 H     13.46361    10.03110     4.35962   0.106      318
 H      9.76532    12.30972     4.26640   0.109      319
 H     12.57390    12.45239     3.21086   0.095      320
 H      7.72685    13.40959     3.17317   0.093      321
 H     10.91936    10.96797     4.46917   0.096      323
 H     11.27546    13.74940     3.11396   0.093      324
 C      7.71948    14.54366     5.70056  -0.194      325
 C     14.52014    10.08417     6.97495  -0.205      326
 C     10.74094    12.00986     6.99398  -0.206      327
 C     11.44464    12.62107     5.74550  -0.192      328
 H     13.44363     9.96114     6.98451   0.101      330
 H      9.68218    12.24151     7.00001   0.105      331
 H     12.58802    12.33875     5.74475   0.094      332
 H      7.62718    13.45056     5.64893   0.096      333
 H     10.88140    10.94228     6.91933   0.100      335
 H     11.36177    13.74443     5.89954   0.095      336
 C      7.72223    14.46994     8.23319  -0.213      337
 C     14.44746    10.20669     9.49004  -0.197      338
 C     10.81652    12.06246     9.51355  -0.192      339
 C     11.45969    12.57403     8.17917  -0.203      340
 H     13.31547    10.05256     9.46795   0.103      342
 H      9.71951    12.34461     9.36273   0.102      343
 H     12.52740    12.37508     8.08677   0.103      344
 H      7.68247    13.42437     8.26242   0.100      345
 H     10.85004    10.95034     9.52373   0.098      347
 H     11.45036    13.65600     8.17857   0.097      348
 C      7.80120    14.42140    10.76295  -0.209      349
 C     14.43315    10.15226    12.07653  -0.205      350
 C     10.71117    12.02462    12.00450  -0.206      351
 C     11.51517    12.63436    10.76583  -0.196      352
 H     13.35717     9.94354    12.19617   0.103      354
 H      9.67250    12.24127    12.04956   0.107      355
 H     12.56984    12.32725    10.73987   0.104      356
 H      7.76958    13.38271    10.81743   0.101      357
 H     10.73149    10.91888    11.98466   0.093      359
 H     11.60811    13.72866    10.69757   0.094      360
 H      0.35164     8.52412     3.10941   0.100       81
 H     14.61381     6.35755     9.45722   0.089      286
 H      0.11183     8.43237    10.61984   0.093      117
 H     14.62692    11.29429     9.53836   0.096      346
 H     14.59020    11.27326     4.43119   0.095      322
 H      0.29587     8.45669     5.70316   0.094       93
 H      0.37156     8.42307     8.24649   0.088      105
 H      0.41305     3.49290     5.55483   0.090       33
 H      8.81204    14.75417     5.79653   0.103      329
 H      6.00675     0.04484     7.02567   0.106       30
 H      5.94440     0.20615     1.92492   0.100        6
 H      8.82093    14.68887    10.94165   0.111      353
 H     14.43464    11.24481     1.96016   0.094      310
 H      1.45802    14.73590     5.66443   0.103      149
 H      6.00136     0.06017     4.39800   0.105       18
 H     13.43408     0.01605     6.97908   0.099      210
 H     14.57279     1.36772    11.97273   0.098      238
 H     14.36883     1.56362     1.85457   0.084      190
 H     13.29405     0.09991     4.47651   0.097      198
 H      0.36393     8.38700     0.58804   0.085       69
 H      0.30134     3.56779     0.76354   0.100        9
 H      0.38963     3.62872     3.15630   0.098       21
 H      0.29098    13.46768    10.70812   0.106      177
 H     14.56600     6.25551     1.87900   0.106      250
 H     14.65375    11.20554    12.10848   0.103      358
 H      0.15585     3.49327    10.74833   0.093       57
 H     14.38800     6.22860    12.00545   0.097      298
 H     14.38041     6.47939     4.48546   0.083      262
 H     14.40832     1.42259     4.62591   0.092      202
 H      0.46879    13.39272     8.30087   0.097      165
 H      8.81461    14.63531     8.16400   0.103      341
 H     13.34863     0.34063     1.91211   0.105      186
 H      0.38411    13.33371     5.71991   0.090      153
 H     14.44435    11.17521     6.86826   0.095      334
 H      0.30766     3.50457     8.26569   0.098       45
 H     14.46836     1.31759     9.49157   0.099      226
 H     14.60137     6.33839     7.03726   0.091      274
 H     13.37053     0.11118    11.86728   0.103      234
 H      1.31504    14.76351     3.09491   0.110      137
 H      0.18509    13.40203     0.71556   0.094      129
 H     13.30027     0.00949     9.56754   0.093      222
 H      8.85462    14.70113     0.70251   0.098      305
 H      1.35137    14.45263     0.67048   0.103      125
 H      1.50468    14.60809    10.88461   0.097      173
 H      1.46923     0.01799     8.20921   0.096      161
 H      6.05833    14.70867     9.54090   0.102       42
 H      0.00684     1.34422     7.05689   0.093      214
 H      8.84430     0.00979     3.18718   0.099      317
 H      0.01155    13.50570     3.10863   0.100      141
 H      6.05170     0.00404    11.97029   0.107       54
