      360
    14.80000    14.79000    12.67000  90.000  90.000  90.000
 C      0.34072     4.58615     0.62072  -0.188        1
 C      7.08090     0.31908     1.92271  -0.200        2
 C      3.34065     2.13446     1.90216  -0.201        3
 C      3.99069     2.78318     0.64048  -0.193        4
 H      1.47755     4.66631     0.73790   0.099        5
 H      2.26493     2.23045     1.85983   0.104        7
 H      5.09248     2.71869     0.63849   0.103        8
 H      0.15341     3.49543     0.67788   0.093        9
 H      7.28130     1.45365     1.93706   0.091       10
 H      3.54465     1.02320     1.97739   0.093       11
 H      3.79492     3.91537     0.61628   0.088       12
 C      0.34534     4.61248     3.19786  -0.194       13
 C      7.07860     0.34155     4.42054  -0.200       14
 C      3.41174     2.13868     4.45330  -0.201       15
 C      3.94805     2.74611     3.14597  -0.191       16
 H      1.44458     4.70720     3.13012   0.103       17
 H      2.29420     2.18095     4.47792   0.101       19
 H      5.08904     2.57362     3.13847   0.100       20
 H      0.27991     3.50096     3.15956   0.092       21
 H      7.33012     1.45751     4.45563   0.090       22
 H      3.60774     1.07199     4.42682   0.096       23
 H      3.78569     3.83377     3.01025   0.098       24
 C      0.31219     4.64828     5.66416  -0.201       25
 C      7.10731     0.30547     6.94626  -0.201       26
 C      3.48989     2.19379     6.97597  -0.191       27
 C      4.09390     2.86204     5.72692  -0.204       28
 H      1.38977     4.74014     5.65857   0.107       29
 H      2.38043     2.26145     6.97942   0.101       31
 H      5.18918     2.84184     5.72159   0.102       32
 H      7.25072     1.38336     6.91156   0.097       34
 H      3.46709     1.11951     6.92175   0.094       35
 H      3.94894     3.91705     5.68705   0.097       36
 C      0.28775     4.59648     8.24915  -0.194       37
 C      7.07407     0.32491     9.51700  -0.196       38
 C      3.38338     2.11252     9.47163  -0.199       39
 C      4.00745     2.77711     8.26644  -0.191       40
 H      1.42368     4.66224     8.27499   0.097       41
 H      5.97110     0.25162     9.58144   0.101       42
 H      2.30610     2.18250     9.54860   0.107       43
 H      5.09816     2.67121     8.35418   0.104       44
 H      0.15969     3.50322     8.19220   0.093       45
 H      7.19191     1.43595     9.48991   0.092       46
 H      3.60894     0.99026     9.46259   0.090       47
 H      3.85412     3.89248     8.24629   0.092       48
 C      0.27429     4.60299    10.71993  -0.200       49
 C      7.09074     0.29289    11.99222  -0.197       50
 C      3.36552     2.12845    12.04440  -0.198       51
 C      3.97990     2.78001    10.74299  -0.202       52
 H      1.37249     4.71474    10.60084   0.103       53
 H      2.26193     2.29623    12.08520   0.104       55
 H      5.07715     2.59842    10.66154   0.104       56
 H      0.14599     3.49017    10.65430   0.094       57
 H      7.28050     1.35592    12.12363   0.099       58
 H      3.51553     1.03747    11.97090   0.097       59
 H      3.76787     3.86165    10.75750   0.097       60
 C      0.29556     9.55521     0.61663  -0.197       61
 C      7.11463     5.22701     1.92969  -0.198       62
 C      3.35507     7.04779     1.86407  -0.208       63
 C      4.02892     7.73900     0.60962  -0.207       64
 H      1.37978     9.65656     0.62855   0.105       65
 H      6.04509     5.15633     1.98865   0.106       66
 H      2.27086     7.23890     1.75881   0.105       67
 H      5.09125     7.51014     0.58783   0.107       68
 H      0.04085     8.47071     0.59151   0.095       69
 H      7.25779     6.34911     1.88129   0.090       70
 H      3.62754     5.99071     1.71435   0.100       71
 H      3.75478     8.80713     0.74617   0.097       72
 C      0.33904     9.48335     3.18529  -0.210       73
 C      7.06597     5.25509     4.41309  -0.200       74
 C      3.40677     7.06048     4.40698  -0.195       75
 C      3.99867     7.71446     3.21526  -0.191       76
 H      1.42994     9.51946     3.28586   0.104       77
 H      5.94758     5.13918     4.41248   0.102       78
 H      2.32658     7.14536     4.46758   0.105       79
 H      5.10388     7.66730     3.21374   0.101       80
 H      7.27675     6.32819     4.29989   0.097       82
 H      3.60150     5.98850     4.56260   0.096       83
 H      3.84922     8.80279     3.12442   0.093       84
 C      0.28832     9.55815     5.72372  -0.207       85
 C      7.06072     5.27071     6.96769  -0.188       86
 C      3.43431     7.10928     6.98750  -0.198       87
 C      4.02452     7.74809     5.69311  -0.207       88
 H      1.37037     9.66722     5.79329   0.105       89
 H      5.95303     5.20840     6.99668   0.101       90
 H      2.35798     7.23549     6.95345   0.105       91
 H      5.12966     7.73099     5.63257   0.103       92
 H      0.10818     8.51826     5.71982   0.103       93
 H      7.20697     6.41768     7.00865   0.089       94
 H      3.61771     5.99902     6.91575   0.093       95
 H      3.78489     8.82957     5.74676   0.095       96
 C      0.34078     9.52472     8.25374  -0.197       97
 C      7.09271     5.26234     9.46233  -0.205       98
 C      3.38048     7.02996     9.50419  -0.196       99
 C      4.00458     7.70573     8.23711  -0.200      100
 H      1.44462     9.59633     8.25294   0.101      101
 H      6.02514     5.19635     9.48629   0.107      102
 H      2.31746     7.05413     9.50206   0.104      103
 H      5.05478     7.61929     8.23665   0.109      104
 H      0.21539     8.42941     8.35229   0.094      105
 H      7.29245     6.34827     9.45869   0.096      106
 H      3.49796     5.87258     9.49335   0.084      107
 H      3.86367     8.79823     8.21519   0.094      108
 C      0.34141     9.54261    10.76214  -0.206      109
 C      7.11954     5.23636    12.06122  -0.188      110
 C      3.36723     7.06810    12.05724  -0.194      111
 C      4.00068     7.71906    10.78881  -0.198      112
 H      1.43995     9.61253    10.75264   0.102      113
 H      6.01536     5.16299    12.06604   0.102      114
 H      2.30036     7.26570    12.08471   0.106      115
 H      5.13225     7.56285    10.78304   0.101      116
 H      0.20437     8.50899    10.73956   0.101      117
 H      7.29573     6.36333    12.08547   0.090      118
 H      3.54003     5.92429    11.93431   0.090      119
 H      3.86914     8.78888    10.83618   0.097      120
 C      0.31191    14.47782     0.62620  -0.207      121
 C      7.07428    10.17616     1.86575  -0.205      122
 C      3.37293    12.00776     1.94887  -0.193      123
 C      3.97095    12.61672     0.60768  -0.193      124
 H      6.03571    10.07018     1.77030   0.110      126
 H      2.25915    12.15266     1.95186   0.102      127
 H      5.11639    12.58871     0.64686   0.095      128
 H      0.11495    13.40456     0.67840   0.097      129
 H      7.24781    11.26138     1.87368   0.096      130
 H      3.52413    10.89973     1.98294   0.094      131
 H      3.94107    13.72004     0.56803   0.092      132
 C      0.27995    14.49002     3.16678  -0.183      133
 C      7.06621    10.21141     4.46314  -0.199      134
 C      3.41209    12.01189     4.42220  -0.211      135
 C      3.98190    12.62137     3.09073  -0.189      136
 H      5.97839    10.13946     4.47903   0.103      138
 H      2.33755    12.17921     4.49695   0.108      139
 H      5.12342    12.46992     2.96668   0.098      140
 H      0.18868    13.35560     3.10113   0.088      141
 H      7.22249    11.30775     4.49886   0.095      142
 H      3.60342    10.96006     4.45082   0.101      143
 H      3.84070    13.70259     3.07142   0.096      144
 C      0.34773    14.42872     5.68637  -0.200      145
 C      7.09305    10.17562     6.99926  -0.208      146
 C      3.44893    12.00581     6.99408  -0.195      147
 C      4.01687    12.69288     5.72730  -0.209      148
 H      6.03574    10.11808     6.98324   0.108      150
 H      2.38368    12.05004     7.09798   0.107      151
 H      5.06585    12.49966     5.64951   0.112      152
 H      0.13433    13.31922     5.69778   0.093      153
 H      7.37760    11.24626     7.00589   0.097      154
 H      3.51817    10.89670     7.01881   0.089      155
 H      3.77409    13.75690     5.79254   0.097      156
 C      0.35171    14.43436     8.22835  -0.187      157
 C      7.11830    10.16574     9.51599  -0.192      158
 C      3.39012    11.97725     9.55124  -0.209      159
 C      4.02899    12.70100     8.18689  -0.210      160
 H      5.99971    10.09826     9.47047   0.101      162
 H      2.33571    12.19086     9.62472   0.110      163
 H      5.08466    12.58233     8.12813   0.111      164
 H      0.21943    13.29613     8.17683   0.089      165
 H      7.32563    11.27060     9.45466   0.093      166
 H      3.63355    10.90183     9.64210   0.098      167
 H      3.86796    13.75723     8.10746   0.097      168
 C      0.27108    14.49416    10.74974  -0.189      169
 C      7.07295    10.18085    12.02466  -0.205      170
 C      3.36385    11.96818    12.01025  -0.189      171
 C      4.01885    12.63939    10.80723  -0.204      172
 H      5.97790    10.07333    11.97503   0.106      174
 H      2.26896    12.04423    12.05466   0.103      175
 H      5.07655    12.54135    10.82714   0.108      176
 H      0.05431    13.40386    10.67575   0.095      177
 H      7.32463    11.21659    11.98853   0.102      178
 H      3.45990    10.84634    11.95039   0.089      179
 H      3.88875    13.70770    10.65115   0.097      180
 C      7.74977     4.61127     0.61055  -0.196      181
 C     14.50129     0.30411     1.95222  -0.184      182
 C     10.77635     2.12878     1.91677  -0.189      183
 C     11.36277     2.75428     0.66544  -0.191      184
 H      8.83344     4.65004     0.63634   0.101      185
 H      9.67251     2.23858     1.92732   0.105      187
 H     12.52801     2.74401     0.69873   0.096      188
 H      7.61618     3.48029     0.62328   0.091      189
 H     14.72599     1.48502     1.94727   0.085      190
 H     11.02485     0.99032     1.96184   0.090      191
 H     11.17348     3.85119     0.57432   0.093      192
 C      7.69474     4.60427     3.17355  -0.206      193
 C     14.52564     0.31356     4.45370  -0.205      194
 C     10.76965     2.15025     4.50816  -0.206      195
 C     11.37617     2.78944     3.13344  -0.195      196
 H      8.72217     4.70644     3.15281   0.112      197
 H      9.70683     2.25785     4.62254   0.107      199
 H     12.49471     2.64844     3.12165   0.103      200
 H      7.47194     3.52220     3.31148   0.096      201
 H     10.99603     1.09445     4.60901   0.098      203
 H     11.20425     3.88802     3.03268   0.096      204
 C      7.69883     4.60000     5.71560  -0.198      205
 C     14.48512     0.28936     6.95791  -0.195      206
 C     10.81420     2.17515     6.95806  -0.193      207
 C     11.38431     2.82570     5.71957  -0.202      208
 H      8.78171     4.66829     5.69070   0.104      209
 H      9.71180     2.35450     6.91712   0.102      211
 H     12.44857     2.64595     5.72843   0.107      212
 H      7.42405     3.49603     5.68914   0.090      213
 H     14.66675     1.40767     6.95069   0.091      214
 H     10.97377     1.04732     6.98854   0.090      215
 H     11.17627     3.91868     5.82556   0.093      216
 C      7.69853     4.62687     8.22992  -0.201      217
 C     14.43065     0.33893     9.50521  -0.199      218
 C     10.79674     2.11774     9.49259  -0.185      219
 C     11.44959     2.79145     8.18867  -0.198      220
 H      8.78609     4.67778     8.22432   0.103      221
 H      9.60266     2.25995     9.51387   0.095      223
 H     12.53311     2.71684     8.16384   0.104      224
 H      7.54237     3.57315     8.25344   0.099      225
 H     14.55573     1.43564     9.49248   0.093      226
 H     11.00767     1.00145     9.43418   0.091      227
 H     11.24353     3.92528     8.10426   0.090      228
 C      7.73902     4.60896    10.79429  -0.194      229
 C     14.49586     0.35061    12.02680  -0.191      230
 C     10.79824     2.13943    12.02083  -0.200      231
 C     11.43754     2.79355    10.73748  -0.209      232
 H      8.89487     4.67252    10.70002   0.096      233
 H      9.68824     2.28820    12.04047   0.104      235
 H     12.50639     2.64959    10.73611   0.107      236
 H      7.61406     3.51096    10.79151   0.094      237
 H     11.10243     1.07277    11.99652   0.100      239
 H     11.25159     3.84597    10.67902   0.100      240
 C      7.69292     9.54531     0.63977  -0.202      241
 C     14.52641     5.25588     1.90109  -0.207      242
 C     10.81959     7.12438     1.86609  -0.190      243
 C     11.38945     7.71443     0.64218  -0.183      244
 H      8.76845     9.67478     0.72362   0.107      245
 H     13.46450     5.13382     1.89006   0.111      246
 H      9.72701     7.09371     1.80090   0.100      247
 H     12.51070     7.58334     0.72209   0.101      248
 H      7.45374     8.48318     0.62291   0.099      249
 H     14.75515     6.34166     1.81505   0.097      250
 H     10.84424     5.97459     1.87187   0.086      251
 H     11.31186     8.85670     0.65959   0.090      252
 C      7.70396     9.57200     3.16706  -0.199      253
 C     14.50218     5.28917     4.44735  -0.197      254
 C     10.82837     7.09117     4.44966  -0.209      255
 C     11.43495     7.75596     3.18831  -0.197      256
 H      8.80891     9.61522     3.19511   0.101      257
 H     13.41080     5.17302     4.48895   0.106      258
 H      9.79266     7.21355     4.50788   0.111      259
 H     12.57182     7.66861     3.21976   0.101      260
 H      7.47804     8.49171     3.23803   0.096      261
 H     14.76481     6.34380     4.53188   0.098      262
 H     11.03302     6.00187     4.47558   0.097      263
 H     11.23045     8.82886     3.20353   0.096      264
 C      7.68342     9.57293     5.65984  -0.195      265
 C     14.46438     5.23990     6.93796  -0.197      266
 C     10.78161     7.04792     6.96895  -0.200      267
 C     11.39463     7.72749     5.71496  -0.188      268
 H      8.79176     9.60891     5.67959   0.101      269
 H     13.34561     5.20091     6.92632   0.101      270
 H      9.74019     7.06907     6.93535   0.106      271
 H     12.54548     7.62078     5.60508   0.100      272
 H      7.47287     8.47579     5.67442   0.094      273
 H     14.67133     6.35690     6.86497   0.094      274
 H     10.82044     5.93249     6.93646   0.088      275
 H     11.22971     8.84342     5.69397   0.091      276
 C      7.76916     9.48069     8.23560  -0.202      277
 C     14.46414     5.24288     9.49829  -0.193      278
 C     10.73521     7.01778     9.46110  -0.201      279
 C     11.38072     7.68752     8.24489  -0.196      280
 H      8.87667     9.49244     8.19536   0.101      281
 H     13.33533     5.18936     9.51465   0.101      282
 H      9.66168     7.16399     9.46461   0.107      283
 H     12.44700     7.54344     8.31711   0.110      284
 H      7.53469     8.41593     8.22688   0.096      285
 H     14.70048     6.32850     9.53940   0.094      286
 H     10.96259     5.91308     9.48676   0.094      287
 H     11.15260     8.76512     8.26429   0.098      288
 C      7.71548     9.51596    10.78396  -0.194      289
 C     14.48102     5.25296    12.13093  -0.192      290
 C     10.78790     7.07067    12.07882  -0.192      291
 C     11.42355     7.73824    10.73561  -0.203      292
 H      8.84731     9.56753    10.84443   0.101      293
 H     13.39960     5.16984    12.07505   0.104      294
 H      9.65300     7.16043    12.13889   0.099      295
 H     12.57924     7.66142    10.70649   0.096      296
 H      7.55445     8.44116    10.74977   0.097      297
 H     14.54356     6.39081    12.09644   0.088      298
 H     10.90523     5.96189    12.01354   0.093      299
 H     11.33683     8.78589    10.70954   0.098      300
 C      7.70469    14.45615     0.67890  -0.209      301
 C     14.49059    10.15332     1.87435  -0.192      302
 C     10.82994    12.03757     1.85230  -0.199      303
 C     11.39427    12.65287     0.67950  -0.196      304
 H     13.36863    10.17715     1.87085   0.100      306
 H      9.76567    12.02291     1.87201   0.104      307
 H     12.47198    12.55261     0.70853   0.107      308
 H      7.48674    13.39397     0.69118   0.097      309
 H     14.69672    11.26138     1.87797   0.093      310
 H     10.92407    10.96224     1.87628   0.094      311
 H     11.16021    13.73453     0.73607   0.097      312
 C      7.69773    14.50376     3.19594  -0.194      313
 C     14.50108    10.14315     4.41019  -0.185      314
 C     10.84647    12.03304     4.43780  -0.200      315
 C     11.44688    12.70499     3.15176  -0.201      316
 H     13.35044    10.04074     4.41278   0.097      318
 H      9.76941    12.14113     4.38027   0.109      319
 H     12.52775    12.62507     3.20065   0.105      320
 H      7.53992    13.44164     3.01903   0.098      321
 H     14.63793    11.26043     4.43298   0.093      322
 H     10.99577    10.93092     4.45279   0.093      323
 H     11.34594    13.83370     3.16485   0.090      324
 C      7.73367    14.44482     5.69864  -0.192      325
 C     14.44868    10.22607     6.97630  -0.198      326
 C     10.76786    11.96626     6.93813  -0.188      327
 C     11.44308    12.66250     5.75206  -0.205      328
 H     13.34161    10.22002     6.88842   0.103      330
 H      9.64881    12.00609     6.91191   0.101      331
 H     12.48288    12.59296     5.69013   0.107      332
 H      7.43942    13.34314     5.65926   0.095      333
 H     14.61293    11.30926     7.00785   0.093      334
 H     10.87534    10.83413     6.98300   0.088      335
 H     11.34582    13.73248     5.79993   0.095      336
 C      7.72408    14.46212     8.20473  -0.199      337
 C     14.51362    10.18239     9.51661  -0.197      338
 C     10.75318    11.94033     9.53102  -0.190      339
 C     11.40434    12.64342     8.25182  -0.194      340
 H     13.43245    10.13353     9.47240   0.106      342
 H      9.59390    12.00316     9.53287   0.097      343
 H     12.51566    12.55270     8.18013   0.100      344
 H      7.52445    13.36574     8.15031   0.095      345
 H     14.67967    11.27051     9.57636   0.095      346
 H     10.84587    10.85849     9.55834   0.094      347
 H     11.35591    13.77872     8.18857   0.087      348
 C      7.67576    14.46071    10.79065  -0.193      349
 C     14.48368    10.22828    12.03856  -0.198      350
 C     10.75504    11.98872    12.01661  -0.201      351
 C     11.33607    12.61243    10.72015  -0.187      352
 H     13.34121    10.13415    11.97745   0.099      354
 H      9.65885    12.13379    11.94249   0.104      355
 H     12.44322    12.57375    10.66070   0.103      356
 H      7.57213    13.40139    10.76172   0.098      357
 H     14.65042    11.28837    12.04284   0.098      358
 H     10.94808    10.88236    12.00476   0.094      359
 H     11.13845    13.74366    10.63920   0.090      360
 H      5.95945     0.23156    11.99688   0.098       54
 H      8.79653    14.55571    10.85310   0.103      353
 H     13.37228     0.12891     6.96762   0.098      210
 H      1.39506    14.55351    10.81085   0.103      173
 H      8.79986    14.56754     3.19682   0.104      317
 H     13.43924     0.23797     4.50714   0.105      198
 H      1.51016    14.52919     8.18237   0.096      161
 H      6.03335     0.27215     4.42750   0.110       18
 H      1.43910    14.54185     5.57884   0.102      149
 H      6.02166     0.23941     6.94131   0.106       30
 H      8.86448    14.65675     5.73281   0.102      329
 H      8.79769    14.52281     8.18491   0.108      341
 H     13.35927     0.30950     1.85385   0.098      186
 H      8.80745    14.51749     0.73939   0.104      305
 H      1.39666    14.53613     0.68496   0.106      125
 H      1.41508    14.57797     3.15025   0.097      137
 H      6.01351     0.26520     1.85412   0.104        6
 H     13.33960     0.34234     9.48830   0.099      222
 H     13.34762     0.27019    11.94763   0.098      234
 H     14.62589     1.43838    12.10116   0.095      238
 H      0.19503     8.46792     3.08245   0.103       81
 H     14.73833     1.34396     4.59333   0.100      202
 H     14.79741     3.57195     5.74608   0.097       33
