384
23.69824000 23.69824000 19.89960000
Ge    5.58588000    5.93984000   11.96524000      0.576754    0.49017800    1.23194400
Ge    5.17290000    4.32129000    2.93525000     -0.171106   -0.54590700   -0.54736700
Ge    3.09938000   11.97829000    6.93418000      0.205386   -0.48761000    0.62147000
Ge    9.04377000   13.95997000   17.13538000     -0.460369    0.26203300   -0.13896500
Ge    4.96027000   15.68127000    9.55630000      0.373035    0.22634000    0.97525000
Ge    9.18683000   18.25743000   19.24424000     -0.139908   -0.11590900   -0.39016700
Ge    7.47096000   23.67966000   11.12281000     -0.976246    0.49856700   -0.36674900
Ge    5.58082000    2.22604000    0.29099000     -0.019318   -0.06547500    0.03760000
Ge    8.61806000    4.81491000   11.68736000      0.331812   -0.14735000   -0.87037300
Ge   11.24018000    5.14289000   18.34448000      0.237070   -0.17182000   -0.13551400
Ge   11.94206000    9.22021000   11.38972000      0.439401    1.50355400    0.18167600
Ge   13.54398000   12.75092000   18.43143000      0.191621   -0.31861400    1.11647100
Ge   11.37570000   17.62820000    8.91542000     -1.855885    1.11513000    0.76841700
Ge   13.52488000   16.57953000    1.02024000     -0.270266   -1.52121500   -0.78367200
Ge   11.23822000    0.46155000   10.11037000     -0.240326   -0.07987900   -0.56014600
Ge   16.21459000   22.14648000   18.91478000      0.217703    0.32581800    0.58637400
Ge   19.44746000    4.94135000   11.80477000     -0.372170    0.12996600   -0.55334800
Ge   19.66223000    8.47603000   17.44504000     -0.215974    0.04111400    1.13256700
Ge   19.55771000   12.92635000   10.05518000      0.430014    0.00040400    0.33184500
Ge   18.43199000   12.20451000   18.58453000     -0.397382   -0.00769200   -0.07527600
Ge   14.48298000   18.61123000    9.09009000     -0.212528   -0.61663100    0.09659200
Ge   18.61202000   16.14358000   19.48845000     -0.347585    0.25754700    0.44953800
Ge   19.33110000    1.48123000   11.02596000      0.838630   -0.36431400    0.34645700
Ge   18.59470000    3.65169000    2.27337000      1.076788    0.10377400    0.47270100
Ge   23.31555000    6.09004000    8.95777000     -0.221619   -0.93562300   -0.31461400
Ge    1.09684000    3.79090000    3.43963000     -2.071410   -0.78634100    0.08906000
Ge    1.86004000    9.58420000    9.74029000      0.265234   -0.12810000   -0.67205600
Ge    0.62544000    8.92545000    0.00919000     -0.889633    0.74093000   -1.30355400
Ge   21.83664000   15.62105000    9.38941000      0.669708    0.34076200   -0.37884000
Ge    1.65969000   14.72411000   19.45010000     -0.302789    0.26215900    0.50616700
Ge   20.85649000   23.07732000   10.11886000     -0.910261    0.23615700    0.32777100
Ge    1.73869000   21.42621000    0.06049000     -1.767960   -0.24955900   -0.99205100
Ge    4.73755000    7.36935000    9.14887000      0.512652    0.34556500   -0.07631200
Ge    2.38596000    6.33543000   19.89140000      0.786034   -0.43345600   -0.33009000
Ge    1.41059000   10.75563000    4.70753000      0.922392   -0.56972000   -0.15027200
Ge    4.45870000   13.00299000   15.79483000      0.023994   -0.40044800   -0.03150400
Ge    5.57518000   19.93164000    2.79755000      1.147057    0.27467500    1.20857300
Ge    0.54767000   17.91911000   18.38812000     -0.732897   -0.36107300   -2.39788000
Ge    5.41793000   20.59384000    8.67966000      0.149319   -0.95460700    0.63918400
Ge    3.55198000   23.16407000   17.50987000      0.045109    0.58005400    0.42813900
Ge   10.93256000    2.42696000    6.89891000     -0.086387    0.11054800   -0.16907600
Ge    6.66371000    8.32584000   19.15148000      0.551395   -0.56237900    0.33838400
Ge    6.28416000   12.52485000    6.53552000      0.264565   -0.06130800    0.18574700
Ge    8.12449000    9.81781000    2.07274000      1.011181   -0.36744600    0.04877200
Ge    6.82346000   17.64503000    6.71370000      0.263677    1.18615500    0.21335100
Ge    5.67091000   20.67302000   18.69861000     -0.748001    0.13578400   -0.64624100
Ge   12.13262000   22.62917000    5.81300000      0.233045    1.03388900    0.63182600
Ge   10.38385000   23.69639000   17.11300000      0.220423   -0.15437200   -0.42715000
Ge   12.43876000    6.93241000    6.06720000      0.552347   -0.20483600   -0.25779700
Ge   14.59123000    7.87875000   16.90454000     -0.841815    0.65115100    0.05484500
Ge   15.66073000   11.88397000    5.79393000     -0.328148    0.43986200    1.86882400
Ge   16.99769000   15.00294000   15.81665000      0.319523   -0.49628800    0.37220300
Ge   12.15204000   15.99633000    5.13237000      0.508340    0.40259800   -0.09785400
Ge   14.97775000   19.16097000   16.82966000      0.237597    0.89188600   -0.53375000
Ge   15.70405000    0.20788000    9.20795000      1.322269    0.26787400    2.05971400
Ge   18.24156000    3.43510000   18.37597000      0.137703    0.32536700    0.48726100
Ge   19.77799000    5.52388000    8.34832000      0.057891    0.52208400   -0.04375000
Ge   21.96445000    5.36915000   16.77821000      2.251195    0.88375200   -1.21134900
Ge   19.98486000    8.46040000    7.61750000     -1.096806    1.49583100   -0.44389400
Ge   22.43396000   13.80891000   17.84841000     -0.170118    0.04545800    0.48983500
Ge   19.68841000   16.92376000    7.29727000      0.298650   -0.37145100    0.58700500
Ge   18.50623000   19.33538000   16.43159000     -0.296621    0.87676100    0.29207400
Ge   20.22734000   23.59325000    7.07410000      0.347324   -0.64329500   -1.05620800
Ge   19.69677000   21.20167000    0.94012000      0.022230   -0.13304100   -0.10287700
Ge    6.28768000    2.83459000    8.90950000      0.116468   -0.64270300    0.68864800
Ge    3.18481000    2.90803000   16.97917000      0.424816    0.60694200   -0.12334300
Ge    3.29918000    7.07211000    5.84896000      0.221756    0.59512900   -0.29226100
Ge    3.13168000    8.90196000   14.16914000      0.609544    0.25514900   -1.03737200
Ge    1.35038000   17.11534000    6.44447000      2.041904    1.13404100    0.66144000
Ge    1.81778000   15.21122000   15.86892000      0.276346   -0.55967800   -0.38744900
Ge   23.68929000   20.75302000   10.35458000      0.645747    0.10395000    0.21103900
Ge    5.04829000   21.01083000   16.12137000      0.406608   -0.22844900    1.01517000
Ge    7.35831000    2.29877000    3.47834000      0.651946   -0.17650800   -0.77238800
Ge    8.12842000    2.42993000   15.50228000      0.231945   -0.48411200    0.35429700
Ge    8.79315000   10.01610000    4.92710000      0.438492    0.53627000    0.61484600
Ge    9.14546000   10.92159000   15.00265000      0.853229    0.73219900   -0.38936600
Ge    9.06396000   14.18352000    6.53837000      0.552837    1.03561700    0.36271600
Ge   14.01605000   12.43258000   15.82448000     -0.135478    1.30648000   -0.44423200
Ge    8.64759000   21.20408000    4.77975000      0.019710   -0.02793900   -0.44625200
Ge    8.64140000   20.04607000   16.23614000      0.081299   -0.52467700   -0.92642100
Ge   14.51297000    1.68474000    6.20783000     -0.048072    0.53422400    0.39187800
Ge   12.41851000    3.29414000   15.45462000      0.798636    0.16421700   -0.10526100
Ge   15.33330000    8.29125000    4.68139000      0.519381    1.55713400    0.56271200
Ge   15.55077000    8.98658000   13.75552000      0.506384    0.98151000   -0.72027500
Ge   16.27380000   13.74884000    3.37303000      1.058214    0.80205600   -0.73336600
Ge   13.94713000   16.14422000   16.84675000     -2.351833   -0.67291800   -2.16354800
Ge   13.26861000   19.01284000    0.54890000     -0.510924    0.96511500   -0.20395200
Ge   10.74678000   21.59528000   19.13179000     -0.407240   -0.03059100    0.20716200
Ge   22.59563000    4.16931000    4.94050000      0.950557   -1.05394900   -0.31489100
Ge   21.10623000    2.45711000   14.41504000      1.606257    0.03380700   -0.08742900
Ge   22.31251000    9.81226000    6.36726000      0.447898   -0.40800800   -0.54733900
Ge   19.55507000    9.72013000   13.65872000     -0.342600    0.33799600    0.06863800
Ge   22.05601000   16.80983000    2.19157000      0.680481   -1.29580600    1.08479000
Ge   19.40426000   15.92337000   14.69231000      0.423225   -0.84395400    0.52208100
Ge   20.28021000   19.63679000    4.04202000      1.165126    1.35305500    1.50549700
Ge   21.31132000    0.29275000   16.96115000      0.584485    0.42882400    1.05548500
Ge    6.19738000    4.63197000    5.61442000      0.017812    0.12744400    0.13700700
Ge    4.16753000    1.99140000   14.33360000      0.256504   -0.82753900    0.46295600
Ge    4.59595000   12.02070000    3.07884000     -0.003111   -0.17782000    0.82350700
Ge    7.63823000    8.25340000   13.22971000     -0.384154    0.61696300   -0.35390600
Ge    6.26353000   16.67315000    0.92078000     -0.549141    0.10881000   -1.82860300
Ge    2.77816000   13.56751000   11.39441000      0.015747    1.10897600    0.13159600
Ge    5.78459000   22.63600000    6.37129000     -1.091082   -0.55274500    0.34255300
Ge    6.81997000   20.01316000   12.80135000     -0.773751    0.44639800   -0.10160500
Ge   15.24676000    4.58197000    4.03586000      1.146272    0.33400200   -0.99792400
Ge   12.62292000    0.50661000   12.44127000     -0.108679   -0.03951300   -0.04868300
Ge   11.51994000    8.17600000    0.19658000      0.106499    0.08253500   -0.07494100
Ge   12.14349000    8.98833000   13.82783000     -0.001146   -0.48012000    0.36298600
Ge   10.81054000   14.11604000    1.56807000     -0.196592    0.04945400   -0.36681300
Ge    7.82203000   16.35799000   10.43789000      0.938957    0.91137700    0.64668600
Ge   13.08491000    0.36035000    1.81609000     -0.498891   -0.45518000    0.43917200
Ge   10.82067000   21.55307000   13.22455000      0.197164   -0.40116300   -1.08894200
Ge   23.43825000    2.57162000   18.43279000     -0.474363   -0.53516600   -0.02242400
Ge   12.17035000    5.25063000   11.34755000      0.372479   -0.92988200    0.42432200
Ge   17.58528000    8.01333000   19.22004000      0.433095   -0.09491700    0.04579800
Ge   13.30287000    7.55654000    8.58728000     -0.233572   -1.54966000    0.18517200
Ge   19.59250000   12.71746000    2.73932000      0.915993   -0.48543000    0.12046500
Ge   16.38890000   14.71640000   10.07261000     -1.505779   -1.22071200    0.40736000
Ge   16.69275000   21.70745000    3.48457000      0.976801   -0.21548900   -0.19446000
Ge   17.87251000   21.50284000   11.79256000     -1.000741    0.11809600    0.35143800
Ge    0.18834000    0.73744000    2.82202000     -0.727071    1.39136100   -0.16585900
Ge   22.88866000    2.07575000   10.20666000      0.567020   -0.88999700    1.13313400
Ge   22.89273000    9.24983000    2.87084000     -0.471206   -0.81401800    0.20842500
Ge   21.96737000    9.34413000   11.85464000      0.203977   -0.59946800   -0.06808900
Ge    0.41388000   13.40630000    4.25568000     -0.091567    1.14907100   -0.31517000
Ge    0.13203000   15.71721000   12.04100000      0.016537    1.49804500   -0.94406000
Ge    0.61795000   21.17487000    3.74825000     -1.561904    0.27772600    0.68476700
Ge   21.55647000   18.69069000   13.08583000      0.751420   -1.17169500    0.48914200
Se    1.96742000    0.31457000   19.70962000     -0.054633   -0.29857800   -0.39493400
Se    1.59254000    2.27083000    9.71432000     -0.179443    0.04475300    0.37137300
Se    1.04660000    7.54575000    1.79446000      0.172185   -0.93978400    0.82291700
Se    0.62280000    7.65331000   10.98996000     -0.517482   -2.56661500   -2.04319100
Se    0.99438000   11.18903000    0.52610000      0.732442    0.43669700    0.50019700
Se    3.16180000   13.90112000    8.91647000     -0.842222    0.11839500   -0.25970300
Se    2.92280000   21.04508000    3.75410000      0.717542   -0.23441200   -0.01999600
Se    0.22269000   19.01556000   12.25914000     -0.086610    0.15736200   -0.49751300
Se    4.62888000    1.70716000    2.91115000      1.062767    1.07400900   -0.20501700
Se    5.75472000    2.00671000   12.22813000      0.382854    0.07536400    0.23517500
Se    8.06543000    4.84743000    3.53771000      0.143581   -0.31075400    0.48341600
Se    8.31313000    8.84968000   10.85552000     -0.060663   -0.66196800   -0.15714900
Se    7.82015000   11.48612000    0.47283000      0.274005    0.67839000   -1.08265400
Se    6.66458000   14.60631000   11.49845000     -0.428875    0.06463300   -0.35214400
Se    7.82084000   21.80918000    2.41047000      0.721278   -0.98288500   -0.42967100
Se    8.71337000   20.77494000   11.44041000      0.341759   -0.03325500    0.02445700
Se   14.55733000    1.02182000    0.06441000      0.152377    0.17091800   -0.46221800
Se   14.00402000    2.67234000   11.59785000     -0.138175   -0.33201000   -0.08759400
Se   11.81514000    7.44677000   17.53947000      0.159289    0.18325200   -0.43006800
Se    9.77663000   10.26043000    8.21409000     -1.043958   -0.48514800    0.58230700
Se   13.32296000   13.84904000    1.04258000      0.057223    0.28758200   -0.34893200
Se   13.92657000    9.32041000   10.01814000      0.704006    0.97039900    1.08828200
Se   15.63749000   17.23377000    1.97159000      0.216189    0.31027800   -0.80339600
Se   12.16180000   19.13398000   11.12690000      0.697410   -0.76606300   -0.12620300
Se   17.82956000    4.03227000    4.67540000     -0.224966   -0.58358000   -0.27085900
Se   14.29963000    4.31292000   13.29301000     -0.012645    0.00585800    0.10976600
Se   17.50721000    5.09431000   16.58663000     -0.906015    0.94448600    0.59407800
Se   18.41794000    4.45873000   14.00625000      0.899722    0.02806400    0.07428300
Se   19.21139000   10.17714000    0.30759000      0.432403   -0.50502800    0.44334800
Se   16.92163000   16.57514000    8.88916000      0.615650    1.76176000   -1.15665400
Se   20.32490000   17.81715000    0.74368000     -0.121718    0.21483100   -1.36781400
Se   19.94791000   20.13197000   11.77397000     -0.302459   -0.00380200   -1.16798900
Se    2.21621000    1.73466000    3.82541000      0.074959   -1.42329000    0.85393200
Se    3.95190000    5.85010000   13.94552000     -0.587170   -0.23107800    0.10841500
Se    5.58138000   12.12837000    0.83942000     -0.302983    0.19002700   -0.64469500
Se    4.44850000   11.97939000   11.01336000      0.623247   -1.50248300   -0.05587600
Se    4.35376000   15.55169000    1.33663000     -0.586653   -0.44745000    0.22441000
Se    3.50934000   16.33221000   11.72490000     -0.568690   -0.05386100   -0.56993800
Se    5.52101000   23.12557000   19.38963000     -0.315473   -0.51616000   -0.11885200
Se    4.92427000   21.80996000   11.80507000      0.783790   -0.23601500    0.40593600
Se   12.65322000    5.63510000    0.33542000      0.341584    0.19257000    1.07256700
Se    8.57336000    2.52666000   10.28607000     -0.451709    0.36276900   -0.21293900
Se   10.76204000   10.80688000    0.12905000     -0.075777    0.22075100    0.46470100
Se   11.44075000   11.81823000   11.57307000     -0.312962   -0.68142600    0.62740300
Se   11.46109000   16.49519000    2.27022000     -0.127190    0.23033800    0.77323000
Se   11.55511000   15.13729000   13.69970000     -0.326235    0.58526300   -0.41142300
Se   12.71075000   23.25017000   18.13081000     -0.009310    0.17053000    0.60307900
Se    9.34201000   23.45133000   12.61402000      0.574866    0.66430900    0.73178700
Se   13.13294000    3.48073000   17.82749000     -1.006685    0.36902500    0.02575200
Se   17.79738000    7.66547000    9.34960000      0.446706   -0.26513600   -0.02769400
Se   15.40077000    6.98964000   19.84626000     -0.511872    0.50042500    0.39605800
Se   18.05365000   13.82055000   12.02478000     -0.086759    0.37571900   -0.42359900
Se   18.62833000   14.90775000    2.18698000      0.443685    0.84248600    0.89750100
Se   13.97093000   13.58206000    9.13090000      0.781698   -0.09594700   -0.09956400
Se   17.79346000   22.62075000    1.37576000     -0.726284    0.25081200   -1.28285700
Se   16.24995000   21.48918000    9.98144000      0.215739    0.22467500   -0.14457400
Se   23.58544000    2.95727000    1.48588000     -0.388736   -0.63544000    0.14112500
Se   21.73147000    4.09058000   10.33967000     -0.157625    0.97867800    0.39523200
Se   21.28835000    5.45468000    3.60900000     -0.746595    0.88070100   -1.63631400
Se   21.29068000   11.77267000   11.57443000      0.330131    0.68875900   -0.21370900
Se   22.57696000   13.98910000    2.01684000      0.337797    0.46509400   -0.17643500
Se   21.34123000   16.12303000   11.99167000      0.130714   -0.07117500    0.38686600
Se   23.06033000   22.28900000    2.07234000     -0.056575    0.18126000   -0.81104600
Se   21.68992000   22.17371000   15.46316000      0.119994   -0.13023100    0.18129600
Se    4.98463000    4.91047000    9.95019000     -1.264444   -0.82067200   -1.02958100
Se    4.14800000    5.45136000   17.19588000     -1.517492   -1.10873000    0.10880500
Se    4.38383000   10.54415000    8.79598000      0.046497    0.29871700   -0.17855500
Se    4.02825000    9.02861000   17.00919000      0.143779   -0.26409100   -0.76015200
Se    5.18878000   19.98900000    6.28927000      0.557299   -0.38092900   -0.45946000
Se   22.87266000   16.07570000   19.21648000      0.118354   -0.07247800   -0.30076000
Se    1.51151000   22.62124000   11.99010000     -0.916766   -0.36636400    0.12465900
Se    2.62295000   20.92105000   17.75251000     -0.284546   -0.55767200   -0.18545800
Se    7.70446000    3.37269000    7.06636000      0.568651    0.26536900   -0.64389600
Se    5.43358000    4.82693000    0.53817000     -0.031728    0.00767800    0.06677400
Se    7.44641000   10.23609000    7.02244000      0.208172   -0.20317800    1.03006800
Se    4.76389000    9.98059000   18.99825000     -0.270273    1.02407900    1.25270500
Se    6.05898000   18.26382000    9.91849000      0.419688   -0.34129500   -0.70077900
Se    6.11422000   17.49069000   17.80013000      0.195881   -0.01998700    0.16316000
Se    8.96494000   19.35768000    6.97900000     -0.370164   -0.08937200    0.72234100
Se    8.21395000    2.12878000    0.92335000      0.576854   -0.36612900    1.12980100
Se   13.52049000    2.28435000    8.65383000     -0.600799    0.07596000   -0.18546600
Se    8.55916000    4.23519000   18.65095000      0.133486   -0.12867600    0.57503400
Se   11.26045000    7.21950000   10.39917000     -1.185266   -0.35975000   -1.67403800
Se   16.07745000   13.48830000   17.77330000     -0.279155    0.33711500   -0.90578700
Se   13.15810000   16.54751000    8.03658000      1.431964   -0.48720700   -0.49868600
Se   15.78226000   17.04096000   17.73786000      1.710413   -0.22376900    1.05215400
Se   14.44722000   23.15994000    7.47735000     -0.903692   -0.98636000   -1.74844900
Se   17.26862000    1.69538000   17.04251000      0.416298   -1.22253100    0.25595600
Se   17.41273000    3.31282000   10.99251000     -0.157582    1.00444100    0.34325600
Se   21.01451000    3.71192000   17.83627000     -1.002370   -2.27214000    1.71359300
Se   18.77684000   10.38619000   10.41970000      0.141372   -0.11242200   -0.34682900
Se   18.95811000   10.21427000   16.11553000      0.087039    0.65018800   -0.11661700
Se   15.19516000   17.02447000   10.95685000     -0.109556   -0.11599400    0.58414000
Se   19.89001000   14.42641000   18.34854000      0.480405   -1.07384400   -0.30131500
Se   19.41713000   21.53773000    8.47207000      1.185485    0.15099900   -0.11025300
Se   18.87684000   18.92055000    2.26504000     -0.997381   -0.17176900   -0.88668600
Se    5.44753000   23.03865000    8.83262000      0.006602    0.89060900    0.46711200
Se    3.12940000    2.36415000   19.47282000      0.007975    1.18015900    0.26958200
Se    7.51021000    6.69825000    9.85314000      0.637832    0.90788500    0.75912700
Se    4.59289000    7.61166000    0.67542000      0.603426    0.12871800   -0.52412000
Se    2.98511000   16.30315000    4.44967000      0.373963    0.33610000    0.49942500
Se    6.31797000   12.82889000   17.30817000     -0.188782    0.01158200   -0.32220200
Se    2.40841000   20.88070000    8.53570000     -1.306293   -0.58090500   -0.45419300
Se    0.59643000   19.10652000    0.30724000     -0.000414    1.61460900    2.73091100
Se   10.64770000    0.04202000    7.50583000     -0.798595   -0.04466800    0.95579400
Se   11.72549000    3.60917000    1.78723000      0.257463    0.15209300   -0.72402600
Se   12.18749000    4.31769000    8.56304000     -0.339439   -0.81278200    0.14630800
Se    8.75839000    7.64852000    1.48926000     -0.062748   -0.24610100   -0.52715600
Se   11.13993000   13.53320000    7.68384000      0.026151   -0.37016700   -0.17063600
Se    8.97349000   15.09864000   19.38948000      0.541324   -0.12599400    0.44809400
Se   12.32481000   22.03387000   10.33235000      0.151217    0.43898200    0.29399700
Se   12.20063000   14.56672000   17.62414000     -0.059482    1.12106400   -0.53774700
Se   18.41961000    0.87167000    8.72061000     -0.965256   -0.39632600   -0.14021700
Se   16.70461000    4.33507000    0.80794000     -1.483385   -0.65481800   -0.64575200
Se   16.09365000    6.24297000    8.30931000      1.665591    1.08843200   -1.69614600
Se   15.19096000   10.39980000   15.69288000      1.034436   -1.41244100    1.06500200
Se   14.70978000   11.50898000    8.25969000      0.329909    0.90155200   -0.94561500
Se   16.65519000   12.80401000    0.56090000      0.367507    0.15133900   -0.65366000
Se   14.97563000   18.75625000    5.09753000     -0.031817   -0.58942900   -0.00509200
Se   18.43058000   21.37206000   17.82807000      0.114510   -0.17859300    0.31254000
Se   22.44531000    0.32851000    8.51123000      0.340640   -0.17137100    0.07082000
Se   23.31649000    1.61553000   15.94280000     -0.998351   -0.64394200   -0.35680100
Se   21.19258000    7.49025000    9.33890000      0.995289   -0.19934700    1.50160600
Se   23.32784000    6.43322000   18.52121000     -0.207297   -0.12150000    0.05785000
Se    0.70298000   10.65785000    7.61435000     -0.181317    0.90420200   -0.07330100
Se   21.06236000    8.69452000   19.38037000      0.334534    0.02013500   -0.09984500
Se   21.31272000   17.95618000    8.73564000     -0.058710   -0.27214500    0.02805800
Se   19.33084000   17.29082000   17.16795000      0.719206   -0.45346000   -0.25950500
Se    2.26122000   23.66708000   10.13680000      0.504061    0.15821700   -0.71414400
Se    2.61847000   23.43131000   14.46009000      0.744088   -0.09020500    0.02129000
Se    2.39080000    7.35611000    8.14394000     -0.383086    0.16783900    0.49261400
Se    2.01631000    8.16091000   17.97086000     -1.000392   -0.29495500   -0.66031700
Se    0.95352000   15.89286000    9.23088000     -0.533728    0.09597300    0.24383600
Se    2.32768000   12.76509000   16.97721000     -0.197518    0.12103000    0.41348900
Se    0.70604000   20.02012000    6.84506000      1.179862    0.08825600    0.59374900
Se   23.09795000   19.30994000   16.52487000      0.182525   -1.65216900    0.50027500
Se    7.50924000   23.44759000    4.99379000      0.871167    0.34129500   -0.05713100
Se    7.04254000    2.34526000   17.90349000     -0.101975   -0.42918600   -0.11007200
Se   10.22552000    6.36123000    6.06631000     -0.339704   -0.00467800   -0.20351100
Se    7.35417000    7.33131000   16.51265000     -0.380506    0.63446500    0.09730200
Se    7.39590000   14.13945000    8.35124000      0.023092   -0.27821700   -1.05403600
Se    8.72957000   17.82071000   12.42996000      0.246576    0.38389000   -0.85868700
Se    6.52403000   17.70940000    4.03637000     -0.515305    0.43862500    0.13589600
Se    8.23840000   17.13556000   16.85626000      0.113834    0.69316700    0.48262300
Se   14.28770000   21.85411000    4.54015000      0.070898    0.14636400   -0.03161300
Se   13.63221000   23.23458000   15.58745000      0.499665   -0.50768000   -0.15078500
Se   13.09416000    8.60575000    4.11636000     -0.376013   -0.31443900    0.49867400
Se   10.01196000    7.59239000   14.66992000      0.711983    0.02648400   -0.62186400
Se   14.33294000   12.69158000    4.08810000     -2.282006   -0.79704800   -0.02035500
Se   14.99032000   14.78219000   14.55188000     -0.980622    0.01764000    0.07274100
Se   12.60945000   18.60205000    5.20606000      0.163647   -0.45429400   -0.11886900
Se   15.45784000   19.72216000   19.38990000     -0.179183    0.01905800    0.06619600
Se   18.74602000    1.43293000    3.88271000     -0.072517   -0.40083100    0.45138900
Se   19.10118000    0.55057000   18.33964000      0.112556    0.37972900   -0.74762700
Se   19.88976000    6.71455000    6.10273000     -0.031156   -0.60217300   -0.64448700
Se   20.21426000    6.69339000   16.04497000     -1.147491   -0.01393500   -0.88370400
Se   19.47442000   12.07130000    5.30348000     -0.160188    0.36969100   -0.50587000
Se   18.46061000   12.88845000   14.09717000      0.011499    0.17245200    0.87786300
Se   19.04709000   18.79405000    5.99175000     -0.285982    0.11588300   -0.25810400
Se   19.98809000   20.56307000   14.91357000      0.080952    0.16157100   -0.44482700
Se    5.72472000    6.80592000    6.68820000      0.313462    0.00207700   -0.34971800
Se    1.57299000    5.10225000   16.86569000      1.627487   -0.27538600   -0.31935800
Se    3.87183000    9.83668000    5.06553000     -0.730810   -0.07702500    0.28490900
Se    3.83473000   11.57979000   13.69837000     -0.086871   -0.83398800    0.57252100
Se    3.25630000   14.01671000    4.90037000     -0.377360    0.12971300   -0.16220200
Se    2.55682000   16.70317000   18.04933000      0.761663   -0.11179000   -0.37641000
Se    0.24354000   22.88772000    5.50933000     -0.303153   -0.12315800    0.43360800
Se    3.87052000   21.09931000   14.09454000     -1.680541    1.07177900   -1.97116500
Se   12.33281000    1.35964000    4.98507000      0.147769   -0.09319300   -0.14419900
Se    8.25426000    5.13042000   16.48988000      0.398077    0.20668400   -0.63592000
Se   11.31913000   11.16231000    6.87577000      0.436034    0.76487200   -0.59937100
Se   10.67291000   11.85392000   17.26492000     -0.395315   -0.07080600    0.00469400
Se   10.27810000   15.63164000    9.76334000     -0.695197    0.03741700    0.07805500
Se   11.43870000   19.29079000   18.37147000      0.314406   -0.26081400    0.75554100
Se   11.16285000   21.52545000    3.98122000     -1.058961   -0.56477200    0.00819100
Se    8.02403000   21.01363000   18.32015000      1.404705   -0.00496600    1.12946700
Se   13.60753000    4.68505000    5.72762000     -0.496563    0.33989400    0.54131200
Se   15.13123000    5.44694000   17.00716000      0.563799   -0.92840200    0.11925500
Se   17.06760000   10.06966000    5.58969000     -0.446102   -1.65845000   -0.70944800
Se   17.70719000    8.05573000   13.33094000     -0.597350   -0.23472000   -0.04856200
Se   17.36582000   13.61739000    5.66095000      0.471500    0.15336800    0.56586700
Se   12.81725000   18.30198000   15.78816000      0.610704   -1.25709800    0.49339900
Se   16.45733000    0.59737000    4.15996000      0.279583   -0.39611700    0.14465700
Se   16.49354000    3.19713000   13.63945000     -0.073578   -0.57773400    0.03609000
Se   22.36559000    4.19115000    7.22818000      0.085400    0.41082600    1.29032400
Se   22.64509000    4.64246000   14.47745000     -0.364110    0.05316400    0.19520600
Se   19.50722000   11.12727000    8.20937000     -0.152389   -0.38513200    0.18661900
Se   21.99793000   13.04310000   15.48894000     -0.741841    0.23736200    0.04117600
Se   20.66732000   14.66254000    7.11482000     -0.491238    0.56017900    0.29181500
Se   22.38687000   17.12619000   15.64002000      0.696499    1.05297000   -0.49492700
Se   21.75053000   21.27746000    7.25382000     -0.361910    0.15858600    0.09263300
Se   22.53909000    0.18774000   19.12086000     -0.473873    0.40222500   -0.42988900
Se    4.06120000    3.18599000    6.08187000      0.482349   -0.84616000   -0.46682900
Se    6.40719000    0.57235000   15.63776000     -0.390822    0.42083800   -0.04382900
Se    2.84099000    5.16335000    3.29526000      1.422003    1.96409700   -0.15028000
Se    4.96337000    8.34683000   11.85873000     -0.567555    0.19229300    0.64149500
Se    2.83693000   10.36119000    2.22156000     -1.116414    0.57537900    0.57033700
Se    3.79239000   14.78945000   14.34344000      0.201161    0.78324000    0.41551900
Se    4.71854000   19.12726000    0.61454000      0.270496   -1.28667500    0.14172500
Se    4.65962000   18.23770000   13.01495000      0.427077    0.00870600   -0.62462300
Se   10.24687000    1.76261000    2.57879000     -1.220011   -0.54085500   -0.19020300
Se   10.84215000    1.58350000   14.81454000     -0.847321   -0.65687500    0.06482100
Se   10.30192000   10.90800000    2.65854000      0.551639   -0.33256700   -0.53994200
Se    8.94149000    9.56435000   16.77854000      0.113192   -1.36802100    1.73917100
Se    8.23169000   12.91261000    4.75466000     -0.217225   -0.39473100   -0.23702900
Se   11.44450000   11.45525000   14.04567000     -0.316184    0.75349100   -0.53772100
Se   10.24165000   20.78675000    1.74311000     -0.965225   -0.00040500   -0.84652100
Se   10.81609000   21.36872000   15.72139000     -0.239416    0.32671900    0.61078200
Se   18.37182000    3.29460000    8.78811000     -0.288834    0.13613100   -1.23713500
Se   14.49268000    1.68808000   15.79567000     -0.023848    0.39040800   -0.08912300
Se   16.86814000    6.64195000    4.56727000     -0.162092   -0.75955700   -0.36677200
Se   14.00561000    7.24142000   14.23528000     -0.374053   -0.07229400    0.03847800
Se   17.53661000   11.32500000    2.18371000     -0.519704    0.12146500    0.95805000
Se   16.91484000   18.52117000   14.53221000     -0.110781    0.41470900    0.21589400
Se   15.86960000   16.55866000    4.13333000     -0.259013    0.19660700    1.23906900
Se   16.18226000   20.62319000   13.55298000      0.058754    0.01374100   -0.47855400
Se   22.34481000    1.07700000    4.80330000      0.636889   -0.14665500   -0.23873700
Se   22.91624000    1.06216000   12.64761000     -0.789615    0.78461600   -0.66863500
Se    0.61876000    8.40650000    4.91498000     -1.275147    0.15026300   -0.05854800
Se   21.04363000    7.76057000   13.78163000      0.338225    0.35814500   -0.79493600
Se   23.31904000   15.94559000    5.82350000     -2.083847   -1.76100900   -0.99173100
Se    0.33925000   12.92282000   14.49407000      1.112220   -0.18698400    0.02239600
Se   22.99746000   19.15541000    3.88589000     -0.523375   -0.39811500    0.11792000
Se   21.76819000   21.77465000   12.07658000     -0.036272    0.15144200   -0.18807500
Se    3.06202000    4.10447000    7.84587000     -0.155624    0.68718200    0.23526500
Se    2.29847000    4.15301000   14.37606000      0.163373    0.51640800   -0.60700600
Se   21.76978000   11.10641000    4.16523000      0.180620    0.48794900    1.14426700
Se    1.02339000    9.13839000   12.52240000      0.293138    3.00617800    3.12190600
Se    0.98220000   15.32540000    2.21572000     -0.097839   -0.58408400    0.19994600
Se    0.97755000   17.04047000   14.09565000     -0.626072   -0.55866800    0.46013500
Se    3.74008000   21.33351000    1.37928000      0.827385    1.27059500    0.69024900
Se    4.84630000   18.57641000   15.42372000     -0.030262   -0.37828300    0.78189900
Se   10.64664000    4.32670000    3.81542000     -0.742049    0.88831600    0.68159500
Se    7.24496000    3.59336000   13.45136000     -1.118834   -0.47873100   -0.23907800
Se    6.58564000    9.93822000    3.86191000     -0.431630   -0.18204200   -0.47587400
Se    7.24020000   10.92595000   13.83356000     -0.790979   -0.46761200   -1.13743100
Se    8.02424000   16.88352000    2.40108000      1.223630   -0.09521500    0.48008500
Se    9.35669000   16.01342000   13.73466000      0.346083   -1.11755400    1.00212300
Se    8.08720000   21.05131000    8.47257000     -0.050681   -0.40537400   -0.69402000
Se    7.10289000   21.60746000   14.96825000      1.016457   -0.00193200   -0.84812300
Se   15.09319000    1.81309000    2.56517000      0.091182    0.36939300   -0.58698100
Se   11.11541000    5.54443000   13.68959000     -0.448644    0.28667400    0.28048400
Se   14.23258000    8.96503000   19.22871000     -0.027484    0.44141900    0.47577600
Se   14.34618000   10.89708000   12.76809000      0.124551   -0.68932000   -0.67499200
Se    9.78497000   16.49044000    5.42430000     -0.939840   -0.58376200    0.58747000
Se   13.11321000   17.64452000   12.77721000     -0.077146    0.01129500   -0.92814000
Se   14.21907000   21.70421000    2.04943000     -0.118154   -0.09291100    0.56990300
Se   14.46017000   22.87069000   13.27569000      0.206386   -0.13724600   -0.04619100
Se   18.16351000    6.11275000    0.99661000      1.329710    0.83189400    0.25243200
Se   14.54608000    5.52997000    9.73502000     -1.370457    0.18236900    0.83886200
Se   20.70872000    7.88400000    3.06601000      0.508586   -0.22700300    0.16851200
Se    0.22986000   13.33431000   11.79642000     -0.545384   -1.35439900    0.17064000
Se   20.18745000   15.67015000    4.12048000     -0.220715   -0.08326200   -1.19700900
Se   17.99907000   16.92760000   12.99150000     -0.010741    0.21778500   -0.23956700
Se   19.27367000   22.48436000    4.21424000      0.363500   -0.46645800    0.05044200
Se   18.41738000   23.60379000   12.69024000     -0.124228    0.24389000    0.44694400
