384
23.69824000 23.69824000 19.89960000
Ge    5.09266000    5.98758000   13.11959000      0.721115   -0.09425800   -0.50651800
Ge    6.74694000    4.62847000    3.36404000     -0.327899    0.39163200    0.18669800
Ge    1.94233000   12.87049000    7.04561000     -0.170792   -0.37568600   -0.05630900
Ge    9.30825000   13.86185000   15.69049000      0.038329   -0.34950600    0.22058000
Ge    5.56479000   15.19186000   10.04581000     -0.429498    0.07744100   -0.23899900
Ge    8.93584000   18.49131000   19.35789000      0.101387    0.30747300   -0.66855100
Ge    7.81740000   23.20905000   12.41192000     -0.521206   -0.36109500    0.19319700
Ge    4.94406000    1.03515000    0.34275000     -0.146299    0.23263500   -0.14194400
Ge    9.05170000    5.23392000   10.78713000     -0.377244    1.11954000   -0.50446300
Ge   11.00436000    6.09002000   18.68713000      0.163031    0.61042600    0.82720300
Ge   10.09261000    7.79517000   10.95428000     -1.476535   -0.15170400    0.80308400
Ge   13.21563000   11.36720000   19.33451000      0.029710    0.98658600   -0.27572200
Ge   11.28291000   19.33137000    9.38949000     -1.133118   -1.08856700    1.18739500
Ge   12.85854000   15.65837000   19.86818000     -0.046072    1.19571300    0.20518300
Ge   11.25812000   23.58358000    9.38880000     -0.143187   -1.76563900   -1.27025200
Ge   16.16711000   22.63191000   18.72491000     -0.281647   -0.43536800    0.52485400
Ge   19.70179000    5.51310000   11.76835000     -0.244803   -0.44179200   -0.10638700
Ge   19.77182000    8.03355000   18.46519000      0.050690    0.48188900   -0.68118400
Ge   19.54424000   11.90230000    9.88099000     -0.150583   -0.41729300    0.27760700
Ge   18.32753000   12.26506000   18.76089000      0.642616   -0.90757300   -0.37857900
Ge   15.07249000   20.88833000    9.19960000      0.966133   -0.59645300    0.04958200
Ge   17.57812000   15.28676000   19.84575000     -0.349808    0.34766500   -0.32339200
Ge   19.66370000    1.27258000   12.15939000      0.980917    0.52453600    0.30991400
Ge   19.55313000    3.17728000    1.79961000     -0.154672    1.14618000    1.15670100
Ge   23.22228000    5.81805000    8.56705000     -0.235996    0.38610500   -0.26911900
Ge    2.19415000    3.29525000    4.03090000      0.363717    0.94233700   -0.03676900
Ge    1.77695000   10.16495000    9.69004000     -0.008850    0.31233100   -0.02515900
Ge    1.22613000    9.02575000    0.18248000     -0.104364   -0.61966900    1.02431600
Ge   20.06271000   15.30995000    8.81021000      1.029103   -0.70986800   -0.16565300
Ge    0.75626000   15.05616000   19.59426000     -0.215526   -0.56543400   -0.51159000
Ge   18.89270000    1.63930000    9.01321000      1.537542   -1.01106800    0.34129100
Ge    1.02383000   20.78436000    0.54539000      0.145582   -0.34269000   -0.17935300
Ge    5.07905000    9.16258000    8.36032000     -0.752407   -0.11168600    0.42600900
Ge    1.25460000    5.14626000   19.24672000      1.150746    0.36678500    0.96566000
Ge    1.73202000    9.68353000    6.39873000     -0.155668    0.04858200   -0.01550400
Ge    4.27045000   11.95966000   17.05260000      0.871287    0.43959600   -0.98319600
Ge    5.83515000   18.12215000    3.72751000     -0.400782   -0.43365200   -0.29282300
Ge   22.73014000   17.71509000   18.40645000      1.093488    0.25012100    0.59806300
Ge    4.72343000   19.55088000    9.67725000     -0.672611    0.31478100   -1.71349900
Ge    3.67500000   22.04513000   18.03134000     -1.542205    0.09171200   -1.25881400
Ge    9.64352000    2.03867000    7.36390000     -0.458752    1.25788100    0.09799600
Ge    6.93757000    8.00566000   18.33641000      0.827725    0.12950700   -0.11895500
Ge    6.46150000   12.81617000    6.68279000     -0.546657    0.09293300    0.02273000
Ge    8.47450000    8.73042000    1.75188000     -0.843557    0.65133600    0.21004800
Ge    8.63561000   19.08013000    7.48359000     -1.063179   -0.84131200    0.17654300
Ge    4.68936000   19.16725000   19.60290000     -0.404297   -0.09012600    0.05248100
Ge   10.98654000   21.92418000    6.40590000      0.273963    0.99893300   -0.22160800
Ge    9.96838000    2.93414000   18.12197000      0.184795   -0.12099400   -0.86255800
Ge   13.81231000    6.67983000    6.11977000     -0.600675   -0.25051700    0.59069400
Ge   13.86198000    8.26020000   19.04985000      0.488448    0.69739500    0.30223000
Ge   15.58038000   12.68101000    6.26731000     -0.335200    1.85345000   -0.07796400
Ge   16.91927000   14.85285000   15.92984000     -0.054727    0.10536700    0.23061400
Ge   12.80513000   16.80744000    4.76434000     -0.843714    0.01377600   -0.50895200
Ge   15.19047000   17.27829000   15.95028000     -0.032404    1.11613400    0.95352900
Ge   15.46382000    0.57932000    9.39792000     -0.966983    0.25746600    0.06387000
Ge   15.98852000    5.23242000   18.44378000      0.207637   -0.36668700    0.55730900
Ge   19.72958000    6.42504000    6.75708000      0.781583   -0.73939800    1.08780000
Ge   22.18502000    5.51574000   16.38013000     -0.691749    0.10939700    0.23160500
Ge   20.05477000    9.57989000    7.98977000      0.181552    0.17553700    0.02589200
Ge   21.66397000   13.10373000   17.68832000      0.493238    0.47725000   -0.62440600
Ge   18.99234000   18.33146000    7.68094000     -1.379339   -0.20910100   -1.42151600
Ge   20.53983000   18.83313000   16.50591000      0.158007    0.64452500   -0.01291300
Ge   19.84609000    0.23702000    5.13421000      0.272169    0.53835800    1.04545400
Ge   20.16651000   21.21746000    0.37472000     -0.429105    0.06535700    0.44848100
Ge    5.17527000    2.04437000   11.18058000      0.747439    0.92183700   -0.62179000
Ge    5.80042000    3.35584000   17.37356000     -0.665993   -0.72253400   -0.07189200
Ge    3.39728000    6.58108000    5.26991000     -0.334154   -0.11964900    0.43474500
Ge    2.95839000    9.92467000   12.75358000      0.244292   -0.03602400   -0.00266700
Ge    2.82122000   17.13336000    6.89019000      0.710093   -0.42230500    0.41499400
Ge    1.25164000   14.11697000   15.38309000     -0.520757   -0.46370100    0.73288200
Ge   22.67233000   20.90018000   10.31241000     -0.127789    0.00527400    0.34031800
Ge    2.80401000   23.03567000   14.93417000      0.361675   -1.10934000    0.02225900
Ge    9.88780000    2.78380000    3.08594000      0.188321    0.78559800    0.05841600
Ge    8.47062000    1.78481000   16.17377000      0.268926   -0.29377900    0.36170700
Ge    8.95786000   10.77345000    5.73750000     -0.131997   -0.41423600   -0.66502300
Ge    7.37711000   10.36113000   15.64203000      0.443185   -0.17889700    0.57263100
Ge    9.72114000   14.81297000    6.28992000     -1.310605    0.33177900   -1.17545300
Ge   15.53969000   11.02761000   15.74821000      0.930352   -0.40007000   -0.03848900
Ge    7.78422000   21.31385000    4.45367000      0.694476   -0.22642800    0.89670200
Ge    8.63574000   19.97228000   15.99826000     -0.777102    0.06381000   -0.41369600
Ge   15.15767000    1.71829000    6.17457000     -0.621232    0.03023700    0.91310900
Ge   13.08344000    2.45341000   15.67044000     -0.972060   -0.38194200    0.08590300
Ge   15.41672000   10.01339000    4.40542000     -2.119922   -0.51036500    0.89606400
Ge   15.81104000    7.36004000   15.11273000     -0.501001    1.00515800   -0.47898900
Ge   15.79141000   14.17424000    3.53276000     -0.073012    0.47916000    0.27861400
Ge   12.39685000   16.07889000   15.28902000     -0.216330   -0.48763600    0.09457600
Ge   13.90388000   19.60213000   18.62241000     -0.083183   -0.06710700    1.00627700
Ge    9.82482000   21.09865000    0.80257000      0.612076    1.22440000    0.09284100
Ge   23.32761000    4.62790000    3.82046000      0.402958   -0.70006200    0.63355300
Ge    0.38673000    2.34265000   15.82617000      0.356840    0.28112700   -1.13115500
Ge   21.56111000    8.86721000    5.87178000      0.917537    0.67337500    0.47968500
Ge   21.27719000   10.00169000   14.01555000     -0.224742   -0.25463100   -0.01307700
Ge   22.46940000   15.98775000    5.82357000     -0.414188    1.75629600    0.21175600
Ge   19.48675000   14.23628000   12.66632000      0.332153   -0.37758800   -0.06894300
Ge   19.84579000   20.74698000    5.88445000      0.489381    0.03127100   -0.01888200
Ge   21.12385000   23.41646000   17.73943000     -0.094234   -0.71957200   -1.40560600
Ge    6.00604000    4.46719000    5.93391000      0.359954   -0.99091500    0.09771100
Ge    2.78742000    3.02420000   14.11170000      2.382373   -1.11165800    1.83304200
Ge    5.29685000   10.81927000    3.88778000     -0.207036   -0.28090900   -1.17829400
Ge    6.93585000    9.41151000   12.38728000      0.351280   -0.39198400   -0.17867200
Ge    5.52540000   15.14276000    0.70076000     -0.755194    0.39170200    1.79249200
Ge    4.91045000   13.00082000   13.44365000     -0.842899   -0.93852100   -0.23504400
Ge    4.74730000   22.38555000    5.55808000      0.307054    0.39640000    0.26194300
Ge    5.91647000   21.21623000   14.08089000      0.116224    0.32804900    0.74067500
Ge   14.93359000    6.09448000    3.33261000      1.030346   -0.54282900   -0.32018300
Ge   13.36314000   23.68843000   12.64569000      0.785494    0.40013300   -0.32544400
Ge   10.65109000   10.19351000    0.86361000      0.314095   -0.00375700    0.03821200
Ge   13.62040000    9.10091000   12.18150000      0.361710   -0.61790200    0.59879200
Ge   10.90638000   13.24419000    1.82186000     -0.987304   -0.00719300    0.72128100
Ge    8.85287000   17.05813000   11.44951000     -0.450558   -0.19566000   -0.50974900
Ge   12.55549000   22.13059000    1.49430000      0.594780   -0.98685700   -0.27921000
Ge   11.20929000   23.07348000   13.80025000      0.164367   -1.92933500    2.17586400
Ge    1.26423000    0.93513000   18.75862000     -0.037422    0.75928700   -0.08162200
Ge   12.12296000    5.84041000   12.65175000      0.334553    0.06646400    0.54338400
Ge   17.71044000    7.71876000    0.14348000     -1.126049   -1.16539400   -0.16901200
Ge   12.40525000    6.57173000    8.62666000     -0.505258    0.30431500   -0.55704900
Ge   20.74933000   13.66297000    2.59251000      1.798454   -1.82766900    0.52775700
Ge   15.67241000   17.68195000    8.60734000      0.798206    0.14114400    0.30623800
Ge   17.55323000   21.13345000    3.33141000     -1.178637   -0.09592700    0.12472200
Ge   19.10822000   21.71751000   13.73864000     -2.168449    0.07482400   -1.84263400
Ge    0.54510000    1.32465000    2.89779000      0.097215   -1.34859400    0.16958800
Ge   22.23578000    1.94576000    9.64623000      1.356168    0.52172500    0.67088300
Ge   22.95806000    9.88225000    2.72163000     -0.114438    0.55989700   -0.24267900
Ge   23.63016000    8.80462000   12.62103000     -0.845837    0.33151100    0.21102100
Ge    2.97646000   13.50504000    2.90619000     -0.073043    0.02463000   -0.38218000
Ge    0.48624000   16.78494000   11.11991000     -0.097498    0.01275800    0.44391600
Ge    0.28189000   21.80189000    4.63360000     -0.276419   -1.00805800   -1.22063200
Ge   20.71855000   17.61879000   11.65271000      0.623129   -0.15054400    0.88615200
Se    2.61667000   23.03831000    0.23839000      0.642347    0.44175200    0.24806400
Se    1.11829000    1.74477000    9.63860000     -0.638828   -0.67066700   -0.35443200
Se    1.22283000    6.57322000    1.42679000     -0.172535    0.68179600   -0.79562600
Se   23.14135000    9.94550000   10.58840000      0.435394   -0.44553900    0.21132800
Se   22.27323000   11.79722000    1.21403000     -0.483573    0.60845500    0.26891200
Se    0.37007000   13.67804000    8.75568000      0.158009    0.70890500   -0.03959400
Se    1.86249000   19.56599000    3.81467000     -1.082782    0.31863800    1.40799600
Se   22.97233000   19.01427000   11.99586000      0.005742   -0.57961700   -0.31356500
Se    6.96930000    2.41327000    2.52581000     -0.143276   -0.36336100   -0.09596800
Se    5.26452000    3.44218000   13.45688000     -0.750427    0.40221500    0.30651800
Se    9.61592000    4.85299000    5.32321000      0.177304    0.19031000   -0.35604900
Se    7.98956000    9.07984000    9.80175000     -0.261779   -0.98283000    0.56556300
Se    7.92378000   10.47243000    0.08109000      0.361793   -0.85914400   -0.05818900
Se    7.42988000   14.86681000   11.51050000      0.221434    0.31254300    0.36294800
Se    7.18571000   20.04640000    2.32657000     -1.229373    0.30753300   -0.18680800
Se    9.23096000   20.83461000   12.31106000     -0.194194   -0.95343700    0.49666600
Se   12.31837000    0.46326000   19.88127000     -0.072749    0.18550100   -0.39184000
Se   12.52218000    2.32698000   11.82842000      0.769855    0.41165500    0.64279000
Se   11.70002000    8.80308000   18.33815000     -1.255276   -0.17123800   -0.70422100
Se   10.64333000   10.04480000    7.65649000     -0.966701   -0.32800000    0.07147200
Se   13.20071000   13.52450000    1.05203000      0.984235   -0.95591100   -0.02362100
Se   12.00286000    8.76153000   10.01257000      0.522179    0.48665200   -1.05256200
Se   15.16125000   17.12492000    0.90676000     -0.312180   -0.53953100    0.10920600
Se   11.70493000   19.73603000   11.72914000      0.174139    0.27269200    0.03702800
Se   19.69746000    3.56946000    4.42220000     -0.644867   -0.80039700   -0.71835500
Se   13.92938000    3.52744000   13.70532000     -0.276957    0.25499200   -1.08068000
Se   16.26738000    5.23132000   16.00214000     -0.326649   -0.52879200    0.44673300
Se   20.06269000    3.59734000   13.57580000     -0.047917   -0.22074000    0.04106600
Se   19.07644000    9.47582000    1.03752000      1.277490    0.50310200    0.11450200
Se   16.27222000   19.39458000    7.03776000      0.064343    0.08063200    0.28879400
Se   19.38737000   17.61479000    0.82661000      0.068819    0.14886000   -0.39540000
Se   20.13973000   19.03780000    9.69848000      0.120708    0.71051800    0.43336200
Se    3.23826000    0.44714000    4.15548000      0.958456   -0.13959200   -0.42643200
Se    2.90382000    5.65825000   11.95833000     -0.443329    0.15257800   -0.72568300
Se    5.78394000   11.63118000    0.73681000      0.065571    0.14952300    0.07827400
Se    4.74341000   12.84194000   10.78012000      0.087816   -0.30729300   -0.31361900
Se    3.91579000   13.44641000    0.35119000     -0.877279   -0.89844400    0.55171400
Se    3.13388000   17.24985000   10.77930000      0.014741   -0.30750000    0.42979300
Se    5.82826000   21.76333000   18.85577000      1.104246    0.09773600    1.32551300
Se    5.07703000   20.23074000   11.83860000      0.280821   -0.04578000    1.49468800
Se   10.83423000    6.23193000    1.73838000      0.194065   -0.25655300   -0.57284300
Se    7.96684000    3.05976000   11.28560000     -0.505807   -0.55746600   -1.74561200
Se   10.68930000   12.46006000   18.45595000     -0.412728   -0.03873200    0.63913400
Se   10.38165000   11.42069000   11.65103000      0.422968   -0.02190700   -0.16085500
Se   11.24777000   15.70999000    2.60480000      0.392472    0.16599800    0.15602300
Se   12.47846000   15.78125000   12.87402000     -0.958755   -0.15524300   -0.21706800
Se   10.96934000   23.45065000   18.16487000     -0.234154    0.67013000   -0.50131300
Se   10.27836000   23.25683000   11.70432000     -1.485397    0.46731200   -1.71052900
Se   12.10815000    4.17025000   17.10424000     -0.391894   -0.12127400    0.40977300
Se   18.06448000    8.35053000    9.14917000     -0.514296   -0.06645200    0.11463900
Se   16.72593000   10.14357000    2.59831000      1.188166    0.30388800   -1.42670100
Se   18.11757000   14.02276000   10.42269000      0.360943   -0.14807900    0.27947200
Se   19.12081000   15.25839000    2.17478000     -0.648290    0.63520000   -0.24340700
Se   14.11429000   15.94503000    7.81024000     -0.552639    0.39965100   -0.18626200
Se   17.83384000   23.30737000    0.49291000      0.222002   -0.40175400    0.00466100
Se   17.33970000    0.97863000   10.80491000     -1.105192   -0.56575500    0.58930700
Se    0.64574000    2.66627000    0.89340000      0.004068    0.49529500   -0.86354300
Se   22.40102000    4.27898000   10.40228000     -0.257654    0.04414200   -0.46296900
Se   21.70929000    4.91891000    2.18505000     -0.774536    0.39192200   -0.76944900
Se   20.72987000   11.61262000   12.12428000      0.165598    0.82109800    0.39888800
Se   22.78942000   14.42154000    4.18481000      0.124596   -1.02071000   -1.11571800
Se   21.79602000   15.36813000   10.71545000     -0.654094    0.19573100    0.88590000
Se   23.19614000   22.12560000    2.33902000      0.268225    0.80987500    0.49192400
Se   21.45270000   23.64664000   15.12118000      0.359242    0.86851300    1.01364700
Se    4.27239000    4.05663000    9.55699000      0.040037   -0.45540600   -0.01393800
Se    4.50466000    5.99323000   18.34559000     -0.295159    0.06914400    0.31952200
Se    4.18967000   11.94508000    8.30419000      0.296281   -0.02641100    0.24499300
Se    4.48453000    6.96515000   15.26174000     -1.405751   -0.23369900    0.26365200
Se    6.31331000   19.68003000    6.10874000      0.766349    0.58280900   -0.16653700
Se   22.01668000   15.14505000   19.08069000     -0.031093    0.45697800    0.85221300
Se    1.30883000   21.88948000   10.88975000     -0.455313   -0.51555400    0.77812700
Se    2.28303000   19.87324000   18.15080000      0.576058    0.28628400    0.13482400
Se    7.38296000    3.05021000    7.70356000      0.546120    0.09866900    0.03126100
Se    5.59359000    4.34893000   19.71643000      0.052541   -0.49336000   -0.06106100
Se    6.44947000    9.90052000    5.89001000      0.355005    0.35183300    0.91265800
Se    4.20776000    9.14074000   19.33216000     -0.183608    1.18169600    0.38231600
Se    6.71779000   18.32124000    9.56825000      0.720758   -0.17310300   -0.70114600
Se    6.06617000   15.34533000   18.46694000      0.921685    0.27595500   -2.51363000
Se    9.54895000   20.92987000    8.85517000      0.041010   -0.13255200   -0.33285600
Se    9.18678000    3.18739000    0.42598000      0.010473   -0.19013500    0.38047600
Se   14.41566000    2.57713000    8.81061000      0.433952    0.07357400   -0.47592600
Se    8.29710000    5.12610000   17.85459000      0.645374    0.33301900    0.42716100
Se   10.16593000    5.27838000    8.49133000      0.354618    0.23994900    0.41412000
Se   18.07850000   11.82733000   16.12636000     -0.766191   -0.36231800    0.17842800
Se   13.32027000   19.36886000    8.30666000      0.564729   -0.17022600   -1.57220900
Se   14.74336000   15.68778000   18.16607000      0.795292    0.43804700   -0.81101000
Se   15.62400000   22.78585000    7.48962000      0.378736    0.84461200   -0.44240800
Se   19.05751000    3.04636000   16.91973000     -0.359799    0.58306800   -1.06834100
Se   17.66371000    3.88289000   11.29523000     -0.568772    0.19747400   -0.93088400
Se   23.16843000    3.66865000   17.67551000     -0.655648   -0.12144800    0.34137400
Se   19.01520000    9.22283000   13.32422000     -0.478879    0.04288100   -0.53084700
Se   19.78673000   10.29488000   16.75962000      0.739653   -0.27802400   -0.19395700
Se   15.90886000   18.57725000   11.07176000     -0.089565    0.02022300   -0.95188100
Se   19.10926000   14.41526000   17.80760000     -0.121420    0.40391300    0.23433600
Se   18.46049000   23.01429000    7.81473000      0.782510    0.12252300   -0.15293800
Se   17.98365000   19.68789000    1.45446000      0.293186    0.11100500   -1.35901400
Se    4.58480000   22.16208000    9.24260000      0.290830   -0.13796200   -0.36243900
Se    3.13709000    3.37322000    0.70195000      0.193221   -0.87725100   -0.77353000
Se    6.81408000    6.87181000   10.11417000      0.862796    0.34857600    0.20662600
Se    5.04904000    7.29320000    0.73720000      0.007035    0.16700500    0.05483300
Se    5.64719000   16.24408000    6.85436000     -0.076427   -1.14199900   -0.17531600
Se    6.98238000   11.93424000   17.54833000     -0.783475   -0.13572500   -0.53867500
Se    2.63795000   19.17553000    8.38445000      0.205955    0.20320200    0.33729000
Se   22.40942000   19.51624000    0.61537000      0.137013   -0.60861500   -0.43925400
Se    9.05981000   23.55073000    7.19487000     -0.143643   -1.53555900   -0.11752000
Se   12.12818000    4.27686000    2.25084000     -0.127279   -0.01657700   -0.06420700
Se   11.23014000    2.15970000    9.23421000      0.067844    2.13160000    0.48918500
Se    8.33353000    6.65238000    0.62988000      0.233493   -0.53566400   -0.19281700
Se   11.07661000   13.83668000    7.92718000      0.167036    0.84332900    1.26206700
Se    8.85611000   13.74826000    0.37093000      0.622361   -0.09123300   -0.19565000
Se   13.49677000   22.78063000   10.26499000      0.292619    0.42963600    0.58633400
Se   14.88246000   12.86137000   17.05209000     -0.420032    0.36429900    0.05948800
Se   17.96682000    3.23359000    7.58569000     -0.692763    1.01496700   -0.60481300
Se   17.24031000    4.90783000    1.91850000      0.987295   -0.35199500   -0.73287100
Se   15.45404000    7.90680000    8.99550000     -0.109617    0.94134400   -0.47028800
Se   15.70393000    9.00958000   17.34068000     -0.225326   -0.59690500    0.06181400
Se   14.83464000   13.83402000    8.33974000      0.086753   -0.73871300    0.47957700
Se   16.01824000   12.53444000   19.66328000     -0.303809    0.64904700   -0.20280600
Se   14.03677000   19.92547000    3.48751000     -0.122406    0.38094500    0.11633100
Se   19.76955000   21.27405000   17.78510000      0.146878    0.07631100    0.21448900
Se   21.63635000    1.17686000    7.45967000     -0.022643   -0.71973200   -0.16607400
Se    0.50495000   23.60195000   15.88709000     -0.383122   -0.06272800    0.25009600
Se   20.84375000    7.59592000    9.21604000      0.517433   -0.48001800   -0.19867100
Se   22.76701000    7.83366000   16.76224000      0.239095    0.06187800    0.59497100
Se   23.63448000   11.16283000    7.95379000      0.811779   -0.35630300   -0.51585700
Se   22.17903000    8.16966000   19.11576000      0.024704   -0.07247300   -0.55505900
Se   21.25818000   17.36306000    8.02863000      0.832656   -0.08079900   -0.80788600
Se   18.98036000   17.68768000   18.37215000      0.055194    0.13331400    0.29255300
Se    1.03993000   23.09903000    8.96645000      0.148440    0.99596700   -0.74423400
Se    3.67041000    0.64366000   12.81870000     -1.582494   -0.29252000   -0.19986900
Se    2.34286000    8.11573000    8.35661000      0.622708    0.08260600   -0.19981700
Se    2.33069000    8.58236000   17.97291000     -0.036977   -0.58991400   -0.75483700
Se    0.82067000   16.16607000    8.66599000      0.067849   -0.03795200   -0.21427100
Se    0.99994000   13.10954000   18.05315000      0.071949    0.18595100   -0.01463900
Se    3.47289000   19.73915000    5.75626000     -0.286105   -0.41363700   -0.33112800
Se   23.15761000   19.42090000   16.69423000     -0.349233   -0.00379500   -0.29905200
Se    6.89683000   23.52183000    4.77064000     -0.671525   -0.35232400   -0.43911600
Se    6.30848000    0.90847000   17.69838000     -0.200293    0.48632600    0.34654700
Se   11.53039000    6.46707000    4.59503000     -1.005740   -1.10025000    1.21792400
Se    6.68137000    7.76438000   15.61559000      0.513861    0.50247700    0.44425000
Se    7.84053000   15.10332000    7.90983000     -0.840282    0.05354400   -0.74428300
Se    8.74427000   18.61293000   13.61728000     -0.306991    1.04091400   -0.62519000
Se    7.64979000   16.31063000    3.07309000      0.896732    2.16399400    1.01011300
Se    9.46945000   16.32156000   15.24001000      0.049306   -0.03743900   -0.75230100
Se   14.49209000   21.66067000    5.22757000     -0.257094   -0.65619900   -0.09129000
Se   14.11452000   22.97891000   15.97929000     -0.647211   -1.73969500   -1.28129000
Se   13.37921000    7.97987000    3.97381000      0.918401    1.46226800   -0.01050800
Se    9.15176000    7.94154000   13.65533000      0.722776    0.21515700   -1.32914100
Se   13.66120000   12.14397000    4.79745000      1.246787    0.55058600   -0.89633900
Se   14.70447000   15.43794000   14.46963000      0.247917   -0.97171600   -0.47758400
Se   11.91914000   19.24379000    4.30374000      0.584347   -0.79040200   -0.05246600
Se   15.86124000   20.14565000   17.52352000      0.604557    0.22250200   -0.36259200
Se   18.06130000    1.62342000    4.34892000     -0.148994    0.91092300   -0.12898800
Se   19.37961000    1.32143000   18.31111000     -0.320387   -0.48526600    1.52383400
Se   19.51051000    8.34969000    4.71044000     -0.526142   -0.32968800    0.28428700
Se   19.72648000    5.55225000   17.20390000      0.710675    0.29090100   -0.62439900
Se   19.63339000   12.00959000    4.11317000      0.474149    0.06253100    0.09055900
Se   16.98604000   12.66430000   12.14410000     -0.097369    0.15961600    0.01696400
Se   19.49721000   18.63419000    4.54116000     -0.245556   -0.71760000    0.27346500
Se   20.81666000   20.61158000   14.55274000      2.337051   -1.33428200    0.98339900
Se    5.60542000    6.73881000    6.46601000     -0.116239    0.28638600    0.35667000
Se    3.30900000    3.39072000   16.58851000     -0.373909   -0.05826300   -0.28054200
Se    3.19764000    9.27295000    3.42584000      0.710367   -0.00634600    0.09850800
Se    4.83248000   10.27729000   14.54392000     -0.388603    1.28652500   -0.43309400
Se    4.64837000   14.15785000    5.30583000      0.499960    0.66551400    0.29577700
Se    1.61994000   17.10533000   18.73772000     -0.781638   -0.01817100   -0.16630600
Se    1.50388000   23.64123000    5.56511000     -0.460846   -0.10835600    1.33314200
Se    3.10593000   20.64792000   13.02913000      0.254388   -0.03392700    0.73778400
Se   12.68255000    0.53319000    6.38249000     -0.510394    0.14762100    0.00324800
Se    7.05706000    4.88208000   15.88000000      0.095051   -0.86526200   -0.28890000
Se   11.91195000   11.89766000    7.03050000      0.606325   -0.71038000   -0.48254400
Se   11.13676000   14.60666000   17.19607000      0.160545   -0.46638200    0.04812800
Se   10.29024000   16.72366000    9.21884000     -0.112071    1.57302600    0.66808700
Se   11.11338000   20.32167000   18.58000000     -0.593056   -0.71952000    0.19497100
Se   10.41121000   21.99230000    3.70237000     -0.893211    0.28020100    0.27595100
Se    8.47692000   20.98847000   18.44455000      0.214857   -0.70947000    0.64958600
Se   15.48915000    4.95989000    5.66714000     -0.446813    0.30835100   -0.40280900
Se   13.94886000    6.13856000    0.04293000      0.117506   -0.72733700   -0.27505800
Se   16.21982000   10.51870000    6.51921000      1.394179   -1.37171000    1.65030000
Se   18.21283000    6.98672000   13.33335000     -0.114480    0.07255200    0.32532100
Se   17.33450000   14.23934000    5.61399000     -0.903890   -0.59023200   -0.87886200
Se   12.75545000   18.33902000   15.76074000      0.614886    0.36270200    0.24498200
Se   15.22266000   23.63031000    4.15914000      0.656532   -0.51649900   -1.26854900
Se   17.62098000    3.65934000   13.55941000      0.296019   -0.09067900    0.90924700
Se   22.32044000    5.06969000    6.25330000     -1.096567   -0.04856300    0.57928800
Se   22.90205000    5.51476000   14.05546000     -0.410284   -0.01258500   -0.70368800
Se   17.49165000   10.60391000   10.63507000      0.165484   -0.32641400   -0.26941400
Se   21.88547000   14.28652000   15.24882000      0.525904    0.22685400    0.26373100
Se   17.78336000   16.14763000    8.37669000     -0.463979    1.17309200   -0.32077800
Se   22.17942000   17.03349000   15.39285000      0.405604   -0.93098200    0.68624900
Se   20.91232000   22.70990000    8.34994000     -0.165509    0.83098700   -0.07301900
Se   22.97465000   23.21358000   19.19737000     -0.410882   -0.47877900    0.39063700
Se    4.29799000    2.78245000    7.47083000     -0.119899    1.01359400   -0.17766100
Se    5.19257000    0.28687000   14.55098000      0.784384   -0.28141500    0.68162000
Se    3.97593000    5.25492000    3.24612000      0.118806   -0.78174600    0.13458800
Se    4.45597000    8.43959000   11.21638000      0.160940    0.53867900   -0.08582500
Se    1.74295000   11.08275000    3.59934000     -0.807474    0.82829400   -0.16469300
Se    4.70601000   14.21857000   15.44517000     -0.565192   -0.32754700    0.78775100
Se    4.37280000   17.11222000    1.34780000      0.136819    0.33839200    0.59079000
Se    3.48851000   16.85105000   13.05539000     -0.563690   -0.16614600    0.45507100
Se   10.47203000    0.46918000    2.15098000     -0.233096   -0.19981600    0.19548400
Se   10.77867000    1.52960000   14.61775000      0.060698    1.80046800    1.02107400
Se    9.68942000    9.31647000    3.75971000      0.755018    0.20727400    0.10178900
Se    9.18260000    8.65049000   16.70691000     -0.665822    0.50857000    0.28327700
Se    8.90986000   13.02973000    4.48348000      0.402438    0.18982800    1.30638100
Se   12.70259000   11.27087000   12.83611000     -0.629301    0.57003600   -0.46995700
Se    9.25775000   19.00961000    2.06288000      0.722479   -0.98900000   -0.14408900
Se    9.10622000   22.34515000   15.56423000      0.060744    0.42783900   -0.42802700
Se   18.97915000    5.04044000    8.88568000     -0.055556   -0.12134500   -1.00816600
Se   14.77481000    1.13518000   16.98631000      0.733578    1.15522400    0.71260900
Se   17.06770000    7.82051000    3.68862000     -1.548757   -0.49876200   -0.11317600
Se   12.83472000    7.52829000   14.40996000      0.315547   -0.11573800   -0.78982600
Se   17.23623000   12.57823000    1.97689000      0.002514    0.11973700   -0.18251900
Se   19.21267000   18.43012000   14.17575000     -0.128137   -0.05572800   -0.00428200
Se   15.64931000   17.06577000    3.25327000     -0.337982   -0.38277900   -0.06719400
Se   17.06509000   20.41880000   13.86040000     -0.142573    0.03776900    0.27928800
Se   22.56976000    2.07495000    4.37655000     -0.341256    0.67182100   -0.10617100
Se   22.17733000    0.87475000   11.76307000     -0.574395   -0.41390400    0.30469400
Se    0.09918000    7.94928000    5.49439000     -0.276400    0.28746500   -0.15120300
Se   21.62926000    7.08373000   12.57285000      1.119502   -0.09257100    0.92389800
Se    0.75525000   17.72192000    5.85591000     -0.890178   -0.31371300   -0.40574100
Se    1.18028000   11.68975000   14.66266000      0.180896    0.53793700   -0.63503000
Se   22.39683000   20.61040000    5.88663000      0.303064   -0.03510600    0.47431300
Se   19.84300000   20.99143000   11.32629000      0.135000    1.07326800    0.18111500
Se    2.36084000    4.09698000    6.50417000      0.013686   -0.13323200    0.01512500
Se    1.47523000    3.72833000   12.44232000     -1.087633    1.00949700   -1.44409400
Se   21.80819000   11.11116000    4.68431000      0.285472    0.04948300    0.41383300
Se    1.70042000    7.51161000   13.46376000      0.248650    0.50649500   -0.01500700
Se    1.31712000   15.30330000    2.07351000     -0.008643   -0.66897700   -0.04611200
Se    0.96248000   16.29696000   14.14518000      0.621688    0.42914300   -0.77602500
Se    3.23858000   19.97354000    2.07034000      0.404409    0.69292500   -1.06943100
Se    6.02381000   17.73955000   18.04263000      0.529794   -0.09661100   -0.33104400
Se   11.29737000    2.62501000    5.74909000      0.204044    0.00467900   -0.56004300
Se    8.21032000    2.38411000   13.44405000      0.316068   -0.61226700    0.79000900
Se    6.28987000    8.57822000    2.91637000     -0.433768   -0.27560100   -0.28902200
Se    9.24641000   10.76361000   13.57079000     -0.590867   -0.25497100    0.27714300
Se    7.06007000   14.27916000    2.40479000     -0.463205   -1.75317800   -1.00677800
Se    9.96562000   15.35445000   12.92850000      0.521239   -0.25602000    0.78750800
Se    6.59424000   23.20619000    9.94537000      0.163344    0.22004400   -0.11524500
Se    5.72766000   20.15993000   16.24858000      0.569418   -0.03765400   -0.70373700
Se   13.20342000    0.35217000    2.81170000      0.367183    1.10173500    1.16713500
Se    9.51538000    5.38862000   13.28689000      0.437049    0.35583100    0.43004500
Se   13.51243000    9.57870000    1.21375000      0.072824    0.40844300    0.21619600
Se   15.25103000   11.06539000   13.25034000     -0.088576   -0.44842900    1.13276900
Se   10.15858000   17.11611000    5.52385000      0.322651   -0.81292100    0.40307400
Se   13.63092000   18.18856000   11.45816000     -0.073201   -0.81454300    0.91882600
Se   14.82887000   21.29581000    0.70902000     -0.161912    0.16331300   -0.77123800
Se   15.22485000   22.23651000   13.75465000      0.252720    0.41790200    0.49437100
Se   18.88250000    5.35688000   19.58831000     -0.500268    0.02356200    1.08745600
Se   14.37683000    6.11201000    9.96243000      0.441362   -1.10140200    0.71649000
Se   20.51817000    8.19701000    2.64896000      0.320391   -0.16198200   -1.09766600
Se    2.25326000   12.64328000   12.58278000      0.518705   -0.55561900    0.74269900
Se   21.47941000   17.69141000    3.75175000      0.162394   -0.27036400    0.62244000
Se   17.88595000   16.33120000   13.94099000     -0.045920   -0.54586900   -0.13977600
Se   19.71252000   22.03919000    3.63041000      1.177662    0.14315300   -0.38983400
Se   18.97473000    0.27228000   14.59967000      0.346626    0.15123500   -0.10069400
