384
23.69824000 23.69824000 19.89960000
Ge    5.07761000    5.97457000   13.09986000      1.059548   -0.28872800   -0.79894100
Ge    6.69191000    4.60339000    3.42579000     -0.231610    0.04881600   -0.14806700
Ge    1.90864000   12.86337000    7.07062000     -0.043349   -0.38095200   -0.15725300
Ge    9.37580000   13.84963000   15.72102000     -0.531574   -0.58521600   -0.14774200
Ge    5.59148000   15.22127000   10.03505000     -0.618717   -0.08914600   -0.24568300
Ge    8.90803000   18.48651000   19.30452000      0.053035    0.23772800   -0.43654100
Ge    7.88944000   23.24150000   12.39613000     -1.118003   -0.17049700    0.38498600
Ge    4.90920000    1.00814000    0.41248000     -0.078490    0.29139700   -0.31948100
Ge    9.03216000    5.20893000   10.76136000     -0.207214    1.16420600   -0.50570900
Ge   11.05989000    6.09462000   18.71319000      0.131763    0.63066500    0.90277400
Ge   10.03437000    7.78852000   10.95047000     -1.048018   -0.05589300    0.76411800
Ge   13.22806000   11.37277000   19.25957000      0.070435    0.84060400   -0.15565500
Ge   11.29897000   19.36114000    9.42036000     -1.825188   -0.81771100    1.49141300
Ge   12.83811000   15.67978000   19.88762000      0.273423    0.99647900    0.13810100
Ge   11.19058000   23.60007000    9.32844000      0.192294   -1.64050200   -1.00662900
Ge   16.19119000   22.68683000   18.70210000     -0.539136   -0.59902000    0.37131800
Ge   19.76454000    5.44450000   11.74105000     -0.412894   -0.16590400   -0.03173400
Ge   19.78410000    8.02814000   18.47901000     -0.060819    0.60637000   -0.47772200
Ge   19.54934000   11.88143000    9.88787000     -0.251281   -0.42810500    0.47155000
Ge   18.33645000   12.28418000   18.78469000      0.831807   -0.77798800   -0.58816900
Ge   15.12266000   20.85932000    9.14318000      1.036083   -0.17725200    0.39671500
Ge   17.55146000   15.31904000   19.83657000     -0.440967    0.37092400   -0.24274800
Ge   19.68102000    1.28929000   12.12239000      0.726993    0.40579200    0.27779400
Ge   19.58601000    3.18492000    1.86743000     -0.190616    0.99886100    1.00969400
Ge   23.23176000    5.81349000    8.51409000     -0.120954    0.50183200   -0.08428300
Ge    2.19993000    3.33875000    4.09177000      0.326034    0.71568000   -0.67130100
Ge    1.76929000   10.17106000    9.69109000      0.037631    0.21128000   -0.13711000
Ge    1.25514000    8.96036000    0.20740000      0.034193   -0.54694300    0.76971800
Ge   20.02808000   15.37019000    8.78079000      1.335243   -1.03156300    0.01189700
Ge    0.77549000   14.98503000   19.62256000     -0.245028    0.14935600   -0.76896000
Ge   18.89730000    1.63034000    9.00422000      1.615439   -1.05820400    0.66995700
Ge    0.99812000   20.80436000    0.53679000      0.104296   -0.43062900   -0.12784300
Ge    5.08514000    9.18075000    8.38016000     -0.866020   -0.09798000    0.50044600
Ge    1.24811000    5.10211000   19.31409000      1.102630    0.25111100    0.66758300
Ge    1.68045000    9.65888000    6.38482000      0.502467    0.39271600    0.31368800
Ge    4.27723000   11.97431000   17.04454000      0.824360    0.43172500   -0.81431800
Ge    5.80794000   18.09455000    3.78221000     -0.300100   -0.19058800   -0.30533800
Ge   22.71082000   17.65372000   18.38806000      1.206227    0.65409200    0.28074200
Ge    4.72537000   19.52356000    9.69603000     -0.607012    0.52673000   -1.26522300
Ge    3.68308000   22.02381000   17.98245000     -1.187955    0.18817100   -1.08695900
Ge    9.59712000    2.07168000    7.38835000     -0.346336    0.46723200   -0.08642100
Ge    7.00159000    8.00357000   18.30893000      0.751960    0.04301400    0.02225100
Ge    6.48562000   12.77306000    6.64921000     -0.638950    0.14810900    0.01101600
Ge    8.49578000    8.72999000    1.78333000     -1.093539    0.14812100   -0.19128300
Ge    8.67182000   19.07517000    7.49759000     -1.024829   -0.73536900    0.16472600
Ge    4.70148000   19.20496000   19.53600000     -0.685297    0.00764600    0.52652500
Ge   10.98302000   21.92477000    6.41483000      0.332330    0.87998700   -0.23364400
Ge    9.94094000    2.95760000   18.10270000      0.287122    0.08096400   -0.54684900
Ge   13.82432000    6.64955000    6.16007000     -0.681005   -0.06309900    0.43112400
Ge   13.87256000    8.28190000   19.04547000      1.322865    0.08564900    0.90125700
Ge   15.57334000   12.73048000    6.27158000      0.016081    0.59911400   -0.14417200
Ge   16.91740000   14.81360000   15.85169000      0.128141   -0.14197800    0.47225900
Ge   12.85622000   16.79784000    4.69929000     -0.997909    0.12931600   -0.60988000
Ge   15.25352000   17.27096000   15.91132000     -0.112524    1.51371800    1.28908600
Ge   15.43938000    0.60627000    9.39435000     -0.853830    0.35181800   -0.23206400
Ge   15.94380000    5.22888000   18.46116000      0.188518   -0.31060000    0.44205000
Ge   19.70690000    6.44296000    6.78834000      0.847107   -0.70722600    1.03968600
Ge   22.18349000    5.56024000   16.42574000     -0.721276   -0.27962200   -0.01811500
Ge   20.08179000    9.54938000    7.99833000      0.061476    0.34758500   -0.14968700
Ge   21.64979000   13.14530000   17.71683000      0.387620    0.30740000   -0.86768700
Ge   18.96384000   18.35331000    7.58005000     -0.624770   -0.42128900   -0.80773400
Ge   20.49546000   18.80066000   16.45564000      0.361504    0.69833900    0.24744400
Ge   19.85039000    0.26156000    5.14582000      0.374624    0.13338600    0.86784000
Ge   20.13565000   21.29084000    0.40627000     -0.423735   -0.03900100    0.19199600
Ge    5.19597000    2.08815000   11.20405000      0.615482    0.51622300   -0.66816100
Ge    5.77251000    3.33465000   17.32446000     -0.796665   -0.84910900    0.55355900
Ge    3.34797000    6.54897000    5.36717000     -0.058854   -0.23910500   -0.00921000
Ge    2.97534000    9.97620000   12.79276000      0.189779   -0.06717500   -0.23301000
Ge    2.79028000   17.17614000    6.86362000      0.943609   -0.47654400    0.34421300
Ge    1.29959000   14.09872000   15.37413000     -0.412811   -0.35652400    0.69297500
Ge   22.67276000   20.97635000   10.35165000     -0.331765    0.02906000    0.01873800
Ge    2.74895000   23.02772000   14.88470000      0.565990   -1.06359600    0.00769500
Ge    9.88470000    2.71264000    3.08179000     -0.029935    1.11023000    0.06620100
Ge    8.57661000    1.70962000   16.17295000      0.123538   -0.43777500    0.29688100
Ge    8.95791000   10.74441000    5.70894000     -0.242722   -0.07067000   -0.38627900
Ge    7.40632000   10.31460000   15.67361000      0.500151   -0.00844300    0.54138600
Ge    9.66610000   14.87394000    6.31157000     -0.923797    0.04773100   -1.28660800
Ge   15.53850000   10.98281000   15.72952000      0.860026   -0.27055600    0.08386400
Ge    7.82330000   21.33701000    4.51912000      0.584154   -0.62339300    0.60057200
Ge    8.61000000   19.96589000   16.04256000     -0.781645   -0.12028700   -0.52877100
Ge   15.12885000    1.69085000    6.18461000     -0.648094    0.08245400    0.91846500
Ge   13.08258000    2.50698000   15.67418000     -0.947987   -0.75768800    0.60440800
Ge   15.36842000   10.06931000    4.41458000     -1.873764   -0.50858200    0.45520000
Ge   15.79814000    7.35568000   15.11713000     -0.347632    0.77565500   -0.62022700
Ge   15.85828000   14.14965000    3.51061000     -0.573979    0.78572200    0.49352400
Ge   12.40290000   16.09801000   15.24730000     -0.432201   -0.25523600    0.46836300
Ge   13.85586000   19.62005000   18.57334000      0.349746    0.04440300    0.79634000
Ge    9.82010000   21.14479000    0.81172000      0.538673    0.80181400    0.13551100
Ge   23.33616000    4.58470000    3.81184000      0.301575   -0.62105400    0.82388900
Ge    0.41260000    2.36615000   15.74382000      0.182983    0.20394800   -1.06638500
Ge   21.58963000    8.81269000    5.87261000      0.412052    0.90437500    0.54415100
Ge   21.31059000   10.06067000   14.03816000     -0.399127   -0.34473400   -0.02810000
Ge   22.46539000   16.01709000    5.71642000     -0.608807    2.24980700    0.79009000
Ge   19.47931000   14.24839000   12.68187000      0.421226   -0.50182500   -0.11821700
Ge   19.84598000   20.73919000    5.92695000      0.375612    0.17965700   -0.19416200
Ge   21.14956000   23.44594000   17.74993000     -0.347063   -0.81523500   -1.56728600
Ge    6.00437000    4.47150000    5.94711000      0.389703   -1.27862600    0.03658800
Ge    2.79192000    3.02020000   14.03696000      2.497945   -1.37275000    2.52556500
Ge    5.29469000   10.86723000    3.91343000     -0.210643   -0.36007200   -1.30881700
Ge    6.93589000    9.41296000   12.39738000      0.302986   -0.35752600   -0.11876500
Ge    5.49994000   15.11595000    0.75816000     -0.587059    0.76694500   -0.11345600
Ge    4.84550000   12.99275000   13.49265000     -0.703315   -0.99156300   -0.64543400
Ge    4.75292000   22.42704000    5.56856000      0.151748    0.18016300    0.20936800
Ge    5.90695000   21.16102000   14.11985000      0.117152    0.58518400    0.73942800
Ge   14.94457000    6.09970000    3.36892000      1.035683   -0.62242700   -0.32657400
Ge   13.33258000   23.68687000   12.63016000      1.148856    0.30081500   -0.46016300
Ge   10.62186000   10.20511000    0.89652000      0.456655    0.02301500    0.02570000
Ge   13.59477000    9.12345000   12.09295000      0.575926   -0.70987300    0.64706600
Ge   10.94375000   13.22879000    1.79265000     -1.189821   -0.00249300    0.80883600
Ge    8.80382000   17.07637000   11.50756000     -0.182287   -0.23043300   -0.60886600
Ge   12.57624000   22.12165000    1.54010000      0.373518   -1.39794000   -0.78664500
Ge   11.22966000   23.09121000   13.78400000     -0.059533   -1.83147100    2.48550500
Ge    1.22351000    0.91256000   18.67750000      0.223233    0.49295300    0.27534500
Ge   12.09417000    5.83667000   12.69469000      0.446768   -0.07092600    0.12832200
Ge   17.66932000    7.67041000    0.13784000     -0.657450   -0.91678800    0.00045500
Ge   12.40015000    6.57578000    8.65995000     -0.911566    0.39969800   -0.96515300
Ge   20.73027000   13.63954000    2.58369000      1.805947   -1.28579100    0.20461400
Ge   15.68763000   17.72663000    8.63058000      0.502653   -0.84911000    0.57156100
Ge   17.57163000   21.15255000    3.39451000     -1.216281   -0.48409500   -0.14819900
Ge   19.09542000   21.67610000   13.77190000     -2.517064    0.71517500   -2.16402000
Ge    0.57782000    1.29673000    2.92909000     -0.156681   -0.93856700    0.40045200
Ge   22.22893000    1.92750000    9.66024000      1.420622    0.64153100    0.46095700
Ge   23.00292000    9.96073000    2.67417000     -0.043212    0.42671500   -0.40290100
Ge   23.62317000    8.82503000   12.62879000     -0.847688    0.18607400    0.56226000
Ge    2.93325000   13.56368000    2.93616000      0.250082   -0.34545700   -0.53636400
Ge    0.49956000   16.77701000   11.15121000     -0.153476    0.13587500    0.21875600
Ge    0.24978000   21.82179000    4.63025000     -0.127985   -0.89984100   -0.82966900
Ge   20.70692000   17.55214000   11.63774000      0.602550    0.32980900    0.69287900
Se    2.64634000   22.97425000    0.22987000      0.403840    0.87383200   -0.04009000
Se    1.20128000    1.69943000    9.63430000     -0.874515   -0.22238600   -0.17399800
Se    1.26098000    6.55561000    1.40780000     -0.154745    0.79251400   -0.43362000
Se   23.15127000    9.92787000   10.61519000      0.283055   -0.34527500   -0.02643600
Se   22.25280000   11.83285000    1.18392000     -0.484343    0.63651900    0.28536000
Se    0.32808000   13.66267000    8.73766000      0.202110    1.03535500    0.14289400
Se    1.83428000   19.57371000    3.87605000     -1.013766    0.47429900    1.15685700
Se   22.97622000   19.07391000   11.92261000     -0.000548   -1.03178600    0.01919600
Se    6.98150000    2.33307000    2.52369000     -0.190311    0.14701000    0.07388600
Se    5.21130000    3.40499000   13.48028000     -0.321008    0.82607600    0.22264000
Se    9.62646000    4.81871000    5.33749000      0.265433    0.25633100   -0.33181200
Se    8.02832000    9.08912000    9.82841000     -0.246776   -0.93809300    0.37602100
Se    7.88969000   10.42507000    0.06085000      0.423173   -0.70069200   -0.02144100
Se    7.43141000   14.92396000   11.52254000      0.101360    0.10762900    0.48759100
Se    7.13296000   20.08726000    2.35059000     -0.411677    0.03145500    0.00376400
Se    9.18769000   20.82546000   12.32767000     -0.134277   -1.07685500    0.49149200
Se   12.28724000    0.46055000   19.86068000      0.269580    0.28392500    0.09320700
Se   12.54531000    2.32163000   11.85614000      0.756482    0.40021400    0.47200600
Se   11.76719000    8.80715000   18.40228000     -2.169797    0.01058100   -1.07771800
Se   10.54639000   10.06933000    7.73220000     -0.804349   -0.21734900   -0.04191200
Se   13.20375000   13.50071000    1.02268000      1.123914   -0.76032100   -0.28024500
Se   12.00875000    8.77754000   10.04286000     -0.037730    0.38717700   -1.11964100
Se   15.16662000   17.11723000    0.91961000     -0.453844   -0.48413000   -0.49250900
Se   11.66553000   19.78000000   11.77532000      0.232452    0.38722600    0.03144600
Se   19.59227000    3.61449000    4.42893000     -0.524410   -0.84089400   -0.52548400
Se   13.88016000    3.50587000   13.70273000     -0.021930    0.50424800   -1.35664600
Se   16.24373000    5.21029000   15.99315000     -0.483729   -0.49236700    0.56337100
Se   20.03157000    3.58583000   13.53864000      0.217960   -0.27147700    0.27071300
Se   19.11621000    9.47238000    1.06729000      0.767606    0.20890000   -0.24841700
Se   16.24684000   19.33513000    7.08277000      0.291012    0.79594800   -0.44919100
Se   19.35319000   17.60762000    0.82611000      0.130771    0.31589900   -0.42527100
Se   20.17213000   19.04154000    9.68358000     -0.075627    0.55053500    0.26998300
Se    3.23996000    0.41452000    4.11201000      1.170812   -0.11314700   -0.46419000
Se    2.91747000    5.74032000   11.89454000     -0.546913    0.04818000   -0.48526100
Se    5.77768000   11.63994000    0.71163000      0.086516    0.13987500    0.12694300
Se    4.72543000   12.78668000   10.77494000      0.183931    0.06798500   -0.34112600
Se    3.91035000   13.44566000    0.28648000     -0.916919   -0.89803100    0.77830800
Se    3.16528000   17.25021000   10.77565000     -0.037777   -0.39084000    0.33336200
Se    5.86586000   21.75512000   18.84484000      0.865018    0.16591400    1.23028500
Se    5.07997000   20.24244000   11.88402000      0.187998   -0.05975600    0.90639900
Se   10.82646000    6.17585000    1.67837000      0.070988    0.06470400   -0.61574200
Se    7.98858000    3.04029000   11.25139000     -0.613890   -0.66781600   -1.42381900
Se   10.70350000   12.44156000   18.47065000     -0.488957   -0.00076400    0.55596200
Se   10.36914000   11.44994000   11.65878000      0.584613    0.09820000   -0.53836200
Se   11.28146000   15.71334000    2.60654000      0.461614    0.20490000    0.03873400
Se   12.47340000   15.78141000   12.86490000     -0.884313   -0.18249400   -0.46080000
Se   10.96982000   23.44921000   18.19198000     -0.647910    0.42315800   -1.02157700
Se   10.25122000   23.24134000   11.71065000     -0.883881    0.56661200   -1.96589700
Se   12.10783000    4.19973000   17.14754000     -0.281090   -0.21763500    0.25806200
Se   18.05621000    8.39579000    9.18839000     -0.499840   -0.14787600   -0.06770300
Se   16.75698000   10.17011000    2.61921000      0.969561    0.05427700   -0.91975100
Se   18.15824000   14.02977000   10.39474000      0.195818   -0.46469600    0.51022400
Se   19.14937000   15.33034000    2.20690000     -0.478982    0.39693300   -0.31693500
Se   14.12360000   15.99541000    7.81037000     -0.275856   -0.00399500   -0.02154500
Se   17.81397000   23.34167000    0.44029000      0.463254   -0.27286300    0.22787900
Se   17.34564000    0.98079000   10.78204000     -1.291880   -0.61499600    0.61666600
Se    0.73964000    2.65173000    0.87488000     -0.683397    0.22619700   -0.61633100
Se   22.36882000    4.30900000   10.34347000     -0.244866   -0.24833500   -0.26471400
Se   21.72491000    4.88210000    2.18357000     -0.776731    0.48940900   -0.80249700
Se   20.79185000   11.65467000   12.14619000     -0.029054    0.79948400    0.29852100
Se   22.78029000   14.40953000    4.19088000      0.299989   -1.47525300   -1.40814800
Se   21.77805000   15.38252000   10.78352000     -0.597171    0.12293000    0.72169100
Se   23.16196000   22.05506000    2.33960000      0.207778    0.79133800    0.46693000
Se   21.44876000   23.60810000   15.08560000      0.304973    0.94893500    1.09258600
Se    4.26592000    3.99192000    9.51782000      0.077297   -0.06943500    0.27078200
Se    4.52514000    5.98174000   18.31117000     -0.227111   -0.19124700    0.83238200
Se    4.22615000   11.93036000    8.33790000      0.252230   -0.02383000    0.19239400
Se    4.52772000    6.92046000   15.22324000     -1.996086   -0.10565800    0.53082000
Se    6.37508000   19.65296000    6.13057000      0.673570    0.53979800   -0.23872600
Se   22.02125000   15.15719000   19.07748000      0.016606    0.45713500    1.02707700
Se    1.29466000   21.88103000   10.89888000     -0.221798   -0.37721100    0.68039500
Se    2.30184000   19.90126000   18.16417000      0.438518   -0.09350300    0.00598500
Se    7.37196000    3.04467000    7.70438000      0.341186    0.12469800    0.11685400
Se    5.57290000    4.30105000   19.76660000      0.179587   -0.14784600   -0.81355900
Se    6.41811000    9.87826000    5.87455000      0.478587    0.34991000    0.95606600
Se    4.20523000    9.15510000   19.31860000     -0.293834    1.27624400    0.25898700
Se    6.72819000   18.34445000    9.54407000      0.824881   -0.41628300   -0.51297600
Se    6.04975000   15.31538000   18.42533000      0.647240    0.41871700   -1.07913600
Se    9.52056000   20.95637000    8.90281000      0.150473   -0.42829100   -0.35487100
Se    9.18264000    3.19741000    0.42015000     -0.043231   -0.22300400    0.33263700
Se   14.40572000    2.63469000    8.75507000      0.532273   -0.30732300   -0.36303900
Se    8.31499000    5.18316000   17.80067000      0.635432    0.23925800    0.46423900
Se   10.17939000    5.21772000    8.49922000      0.308396    0.50802700    0.39516200
Se   18.08448000   11.76006000   16.13398000     -0.347911   -0.54774000    0.46045400
Se   13.30208000   19.42252000    8.36507000      0.706010   -0.40551100   -2.04466600
Se   14.79718000   15.69286000   18.10238000      0.580866    0.47181100   -0.61426800
Se   15.63444000   22.78356000    7.46187000      0.242916    1.07935100   -0.30614900
Se   19.05152000    3.10963000   16.91232000     -0.362605    0.30303500   -1.03194000
Se   17.69599000    3.92411000   11.22992000     -0.560749    0.22109800   -0.49378200
Se   23.19508000    3.62420000   17.63388000     -0.547976   -0.06634400    0.12729700
Se   19.05653000    9.23310000   13.29395000     -0.520748   -0.50364600   -0.37578100
Se   19.85959000   10.21368000   16.78300000      0.365814   -0.00009500   -0.25963600
Se   15.85302000   18.60533000   11.03877000      0.323490    0.10588000   -0.71788800
Se   19.03311000   14.46956000   17.75545000      0.035079    0.08845700    0.28480700
Se   18.47093000   23.02431000    7.86709000      0.666385    0.08430100   -0.37919600
Se   17.99234000   19.68694000    1.42078000      0.194395    0.51248200   -0.90161600
Se    4.56910000   22.15490000    9.21806000      0.369842   -0.16454300   -0.20687100
Se    3.09094000    3.37402000    0.73842000      0.686657   -0.85018700   -0.73952900
Se    6.83275000    6.88854000   10.10224000      0.758435    0.31254200    0.26985900
Se    5.00429000    7.35023000    0.73873000      0.176307   -0.24248700   -0.00338300
Se    5.67827000   16.24442000    6.87425000     -0.132113   -1.04845400   -0.17933400
Se    6.99133000   11.95665000   17.51786000     -0.712712   -0.20379300   -0.36900200
Se    2.67454000   19.18759000    8.41026000     -0.063284    0.13292400    0.18390600
Se   22.36304000   19.54666000    0.70051000      0.119835   -0.48369500   -0.56305100
Se    9.06210000   23.50706000    7.15705000     -0.079544   -0.70920000    0.09734300
Se   12.12513000    4.29136000    2.26609000      0.033381   -0.26714100   -0.00279300
Se   11.19375000    2.19169000    9.18928000      0.163927    1.86327300    0.76351300
Se    8.31892000    6.62028000    0.59146000      0.233702   -0.17214400    0.00079900
Se   11.03694000   13.86034000    7.91738000      0.424253    0.32400200    0.97345900
Se    8.89399000   13.70046000    0.32277000      0.720564   -0.02112300   -0.21209500
Se   13.56124000   22.82843000   10.25821000     -0.182709    0.23531000    0.47254800
Se   14.90151000   12.80481000   17.07505000     -0.486858    0.46752000    0.11182800
Se   18.02347000    3.23066000    7.58162000     -0.915730    0.80439700   -1.07342600
Se   17.24382000    4.89394000    1.88500000      0.908660   -0.29897000   -0.75938200
Se   15.46347000    7.93014000    8.99217000     -0.240667    0.56503800   -0.32577700
Se   15.68139000    9.00294000   17.30918000     -0.193828   -0.72291600    0.24392800
Se   14.91026000   13.84444000    8.32838000     -0.291007   -0.16944800    0.62479900
Se   16.03898000   12.59253000   19.61144000     -0.429870    0.48748700   -0.02146300
Se   13.98710000   19.94198000    3.46184000      0.179226    0.32322500   -0.24867400
Se   19.78814000   21.30590000   17.74791000      0.172132    0.15626500    0.52941600
Se   21.62199000    1.14693000    7.44852000      0.158166   -0.57392400   -0.04461600
Se    0.50077000   23.61316000   15.89110000     -0.336145    0.09688700    0.24936600
Se   20.86734000    7.61398000    9.21765000      0.569921   -0.72654700   -0.06460600
Se   22.74166000    7.85861000   16.74729000      0.321179    0.23727000    0.68845900
Se   23.66401000   11.20124000    7.92730000      0.658069   -0.76655900   -0.48708500
Se   22.17470000    8.20636000   19.11111000      0.080206   -0.00237300   -0.56517400
Se   21.29915000   17.34071000    8.04142000      0.474113    0.23664900   -0.87121500
Se   18.95664000   17.67669000   18.35250000      0.080895    0.18905600    0.27686100
Se    1.03325000   23.12370000    8.97288000      0.163419    0.59278600   -0.75687500
Se    3.60647000    0.64993000   12.82945000     -1.068764   -0.27754300   -0.06164800
Se    2.35440000    8.08064000    8.37791000      0.594778    0.34489900   -0.26400900
Se    2.34945000    8.54737000   17.95481000     -0.177646   -0.49348600   -0.61053100
Se    0.86477000   16.14659000    8.66476000      0.057952   -0.01737600    0.05091000
Se    1.01188000   13.12737000   18.03453000     -0.000602   -0.04038000   -0.03562000
Se    3.49505000   19.73244000    5.73837000     -0.260232   -0.33396900   -0.27702100
Se   23.18763000   19.43499000   16.67590000     -0.570600   -0.25288300   -0.11264200
Se    6.89655000   23.51362000    4.78172000     -0.681759   -0.03297600   -0.43649600
Se    6.30411000    0.90178000   17.72635000     -0.208821    0.54320800    0.26243100
Se   11.51939000    6.44908000    4.60549000     -0.974877   -1.16194200    1.23855700
Se    6.63883000    7.79549000   15.65618000      0.868769    0.40568000    0.25525600
Se    7.77771000   15.09373000    7.89979000     -0.840182    0.11412300   -0.59470800
Se    8.77072000   18.60840000   13.62470000     -0.472761    0.84677600   -0.59721000
Se    7.64767000   16.36762000    3.07883000      0.512780    1.15217500    0.64155400
Se    9.47685000   16.29817000   15.24008000      0.022832    0.01558900   -0.80178300
Se   14.44040000   21.66387000    5.15591000     -0.233715   -0.49782400    0.30332300
Se   14.14180000   22.93737000   15.99973000     -0.611518   -1.37915300   -1.16672800
Se   13.35488000    7.95124000    3.96790000      1.001058    1.44680200    0.05029500
Se    9.12150000    7.93297000   13.68902000      0.747829    0.19953100   -1.57784400
Se   13.62861000   12.17291000    4.79618000      1.423461    0.43329500   -0.65239700
Se   14.68423000   15.43725000   14.52548000      0.223922   -1.29111400   -0.92078100
Se   11.90579000   19.29932000    4.26539000      0.185611   -1.05421500    0.19597800
Se   15.88813000   20.21112000   17.54504000      0.323265    0.07022800   -0.18639000
Se   18.04997000    1.59971000    4.35672000     -0.246828    1.04268100   -0.20039200
Se   19.40709000    1.37540000   18.30284000     -0.277479   -0.44592900    1.41882600
Se   19.53086000    8.32370000    4.66914000     -0.868639   -0.16836200    0.91859600
Se   19.73668000    5.53021000   17.22514000      0.690657    0.39236700   -0.55898600
Se   19.69278000   12.05021000    4.08589000      0.261747   -0.34431000    0.35052900
Se   16.95407000   12.62388000   12.12753000     -0.024478    0.37250800   -0.02185300
Se   19.50108000   18.60345000    4.56757000     -0.310439   -0.56584600    0.30313000
Se   20.81769000   20.61101000   14.51440000      2.956378   -1.67323500    1.18888100
Se    5.60466000    6.69607000    6.49275000     -0.242636    0.61355500    0.38615000
Se    3.32423000    3.42412000   16.65023000     -0.313091    0.07220400   -0.55002200
Se    3.19372000    9.30666000    3.39312000      0.821293   -0.06866600    0.12349000
Se    4.83110000   10.30412000   14.51130000     -0.267205    1.32792800   -0.22606600
Se    4.60847000   14.11697000    5.31509000      0.592479    0.60170900    0.37460900
Se    1.61714000   17.10904000   18.74718000     -0.999868   -0.43230200   -0.02706500
Se    1.55063000   23.67225000    5.57054000     -0.701619   -0.27432400    1.28167300
Se    3.10199000   20.70951000   13.05035000      0.240370   -0.09845000    0.74096900
Se   12.64832000    0.54683000    6.35973000     -0.261777   -0.08843600    0.09600500
Se    6.99613000    4.86201000   15.89356000      0.307191   -0.77583600   -0.49246000
Se   11.89826000   11.83883000    7.02567000      0.138134   -0.12465700   -0.19296500
Se   11.08658000   14.60603000   17.22804000      0.651301   -0.25626900    0.34687500
Se   10.29781000   16.77299000    9.26725000     -0.145837    1.49863800    0.68949800
Se   11.07549000   20.29605000   18.56349000     -0.497712   -0.58629500    0.24497800
Se   10.49587000   21.94565000    3.72521000     -0.948798    0.24832100    0.27020000
Se    8.50638000   20.98917000   18.41124000      0.023826   -0.59331300    0.88836500
Se   15.50852000    4.93409000    5.70504000     -0.531963    0.36411500   -0.45083600
Se   13.94249000    6.13894000    0.12818000      0.139303   -0.31055000   -0.57620500
Se   16.26438000   10.47321000    6.51636000      0.924243   -0.24068100    1.33162700
Se   18.18484000    6.92444000   13.35554000      0.267761    0.65936300    0.19767500
Se   17.33939000   14.24784000    5.60355000     -0.708810   -0.54231000   -0.86985200
Se   12.69323000   18.35395000   15.73614000      0.713604    0.36981700    0.29263800
Se   15.26372000   23.59973000    4.13395000      0.578503   -0.49299200   -1.25552900
Se   17.62312000    3.61907000   13.54641000      0.138755    0.01558100    0.28585900
Se   22.31159000    5.02583000    6.31398000     -1.124422   -0.06019700    0.20618200
Se   22.84078000    5.55506000   14.05336000     -0.320646   -0.16219600   -0.53346100
Se   17.47436000   10.57540000   10.68386000      0.457645   -0.21817700   -0.32952100
Se   21.90165000   14.32704000   15.26887000      0.484482    0.13467400    0.28464100
Se   17.79277000   16.12054000    8.32978000     -0.854858    1.47092000   -0.38131200
Se   22.13313000   17.02632000   15.41185000      0.562365   -0.89305400    0.76616600
Se   20.90247000   22.70704000    8.38134000     -0.103364    0.70960100   -0.02829900
Se   22.96544000   23.18513000   19.22194000     -0.238710   -0.36521200    0.42306000
Se    4.28838000    2.78572000    7.47957000      0.157031    0.60133100   -0.40112300
Se    5.19160000    0.30888000   14.57576000      0.262322   -0.40622400    0.38294100
Se    4.02625000    5.27903000    3.23915000     -0.151697   -0.69201400    0.49222200
Se    4.51161000    8.45225000   11.20050000      0.053901    0.57601200   -0.04222200
Se    1.75232000   11.10374000    3.59069000     -1.004464    0.91745400   -0.05589000
Se    4.73110000   14.18446000   15.52207000     -0.663047   -0.29089100    0.66274700
Se    4.30630000   17.07249000    1.29739000      0.138886    0.56657900    0.65276100
Se    3.48606000   16.84862000   13.04765000     -0.526380   -0.18064300    0.55043700
Se   10.51548000    0.50071000    2.13507000     -0.115819   -0.38732900    0.02291400
Se   10.80839000    1.57346000   14.62357000      0.167212    1.51200700    0.94545400
Se    9.67553000    9.36242000    3.78727000      1.008380    0.06793500    0.04676600
Se    9.18842000    8.64678000   16.69744000     -0.648491    0.55098700    0.31946500
Se    8.89190000   13.03302000    4.47129000      0.349144    0.16408500    1.42775800
Se   12.62372000   11.24229000   12.80529000     -0.440397    0.66669500   -0.38238800
Se    9.24982000   18.99301000    2.03719000      0.067775   -0.33960000   -0.38872000
Se    9.10246000   22.30091000   15.60441000      0.189193    0.72010800   -0.57721700
Se   19.00636000    5.00728000    8.83908000      0.014628    0.14680800   -0.62359600
Se   14.79727000    1.11813000   17.01194000      0.430649    1.01703700    0.39126300
Se   17.07959000    7.78546000    3.66985000     -1.481033   -0.18333500   -0.22369700
Se   12.85084000    7.49637000   14.36510000      0.339742    0.10627700   -0.52091200
Se   17.23685000   12.66606000    2.02638000      0.175278   -0.43446000   -0.49546300
Se   19.23319000   18.41113000   14.16479000     -0.120991    0.05707300   -0.06582500
Se   15.63303000   17.07608000    3.20041000     -0.274052   -0.34986800    0.42542700
Se   17.10208000   20.40187000   13.87741000     -0.500634   -0.13276000    0.31851900
Se   22.57768000    2.11487000    4.43319000      0.040159    0.46247300   -0.36449300
Se   22.14475000    0.83617000   11.77037000     -0.315969   -0.31707600    0.25273900
Se    0.10940000    7.99171000    5.52965000     -0.288940   -0.43876600   -0.44673300
Se   21.59825000    7.04919000   12.55564000      1.255228    0.21681600    0.97681000
Se    0.69990000   17.76992000    5.90746000     -0.867441   -0.32363800   -0.34814800
Se    1.17080000   11.66764000   14.64261000      0.047597    0.41758300   -0.60567000
Se   22.37999000   20.56956000    5.88461000      0.332826    0.09029700    0.40054600
Se   19.86637000   21.04850000   11.30190000      0.031444    0.86002300    0.03687200
Se    2.40138000    4.12723000    6.46580000     -0.240437    0.10562800    0.36647200
Se    1.49648000    3.75785000   12.43252000     -1.577312    1.45376900   -1.97816100
Se   21.86188000   11.08128000    4.67754000      0.126722    0.10707800    0.41479600
Se    1.75452000    7.52951000   13.40809000      0.102337    0.36040000   -0.06895400
Se    1.30271000   15.26399000    2.09452000     -0.267853   -0.45386000    0.00006400
Se    0.94890000   16.28371000   14.16090000      0.695070    0.40433900   -0.77318000
Se    3.22846000   19.92627000    2.11998000      0.252552    0.61821500   -1.12903200
Se    6.07552000   17.74780000   18.13526000      0.830587   -0.46554300   -0.62845600
Se   11.30523000    2.60154000    5.78570000      0.059853    0.06402600   -0.69420100
Se    8.19580000    2.37637000   13.44091000      0.194764   -0.57570700    0.59398900
Se    6.29544000    8.58735000    2.95129000     -0.408905   -0.16288500   -0.34716600
Se    9.25369000   10.75402000   13.52712000     -0.963323   -0.37845100    0.79831300
Se    7.04539000   14.27916000    2.34879000      0.181239   -1.16611900   -0.21354500
Se    9.99393000   15.30832000   12.94818000      0.234573   -0.03880800    0.67065500
Se    6.55816000   23.24624000    9.93875000      0.068955    0.15350700   -0.12941400
Se    5.72821000   20.15796000   16.29602000      0.477267   -0.16534000   -0.62387000
Se   13.19107000    0.31878000    2.77108000      0.580017    1.65329900    1.51264500
Se    9.56863000    5.37881000   13.25803000      0.132381    0.18258900    0.56033700
Se   13.54275000    9.60287000    1.20484000      0.142791    0.54087300    0.17233800
Se   15.24738000   11.05955000   13.27012000     -0.158866   -0.39125600    0.96813800
Se   10.15395000   17.12015000    5.52874000      0.374334   -0.65756300    0.38226700
Se   13.60143000   18.26746000   11.47116000     -0.220678   -1.02578600    1.03538500
Se   14.81577000   21.27593000    0.67656000     -0.165913    0.29324200   -0.76353000
Se   15.20908000   22.25142000   13.79734000      0.232549    0.44825600    0.38784500
Se   18.89860000    5.30435000   19.64126000     -0.593432    0.21208200    1.08178300
Se   14.28868000    6.12995000    9.97594000      1.135569   -1.01178600    0.89122800
Se   20.48384000    8.16874000    2.64776000      0.752543   -0.37748200   -1.77064800
Se    2.20550000   12.64874000   12.54907000      0.566263   -0.45551400    0.90315700
Se   21.51042000   17.69836000    3.81734000      0.237629   -0.34695600    0.32483500
Se   17.92153000   16.28975000   13.96277000     -0.157040   -0.38771900   -0.22261700
Se   19.72868000   22.02546000    3.58938000      1.289673    0.47035800    0.03475700
Se   18.99950000    0.25108000   14.58843000      0.335233    0.13480300   -0.18658800
