384
23.69824000 23.69824000 19.89960000
Ge    5.07597000    5.95761000   13.06959000      1.127162   -0.40184500   -0.92040200
Ge    6.63427000    4.57908000    3.48578000     -0.004484   -0.25643700   -0.44778100
Ge    1.87462000   12.85149000    7.09335000      0.157897   -0.21145300   -0.24584500
Ge    9.43691000   13.82952000   15.74950000     -0.918620   -0.78667900   -0.55100700
Ge    5.61018000   15.24985000   10.02111000     -0.696879   -0.19368900   -0.17421200
Ge    8.88114000   18.48481000   19.24590000      0.056420    0.15089000   -0.09391600
Ge    7.94638000   23.27168000   12.38555000     -1.789771    0.09621300    0.67931500
Ge    4.87312000    0.98486000    0.47798000     -0.022205    0.30315400   -0.42905900
Ge    9.00955000    5.19908000   10.72896000     -0.151724    1.16328000   -0.45997200
Ge   11.11700000    6.10745000   18.75132000      0.059697    0.67039300    0.88690100
Ge    9.96215000    7.78096000   10.95681000     -0.434601    0.02289600    0.79649000
Ge   13.24111000   11.38972000   19.18264000     -0.131698    0.78864900    0.05605600
Ge   11.29169000   19.38031000    9.47089000     -1.724425   -0.62587600    1.32725600
Ge   12.82102000   15.71421000    0.00974000      0.434029    0.58625900    0.29610000
Ge   11.12587000   23.59528000    9.25461000      0.364209   -1.01502900   -0.86307500
Ge   16.20799000   22.73399000   18.68403000     -0.822982   -0.72076000    0.08800100
Ge   19.82142000    5.37299000   11.71300000     -0.623468   -0.07022300   -0.05183800
Ge   19.79538000    8.03069000   18.48650000     -0.217568    0.67578600   -0.27275000
Ge   19.55139000   11.85485000    9.90101000     -0.264194   -0.39181500    0.59918200
Ge   18.35641000   12.29334000   18.80069000      0.894680   -0.48495700   -0.71654100
Ge   15.18611000   20.82791000    9.09174000      0.956288    0.23249200    0.49491600
Ge   17.51918000   15.35602000   19.82413000     -0.421648    0.32308500   -0.22497200
Ge   19.70751000    1.31107000   12.08944000      0.247642    0.26161300    0.24461400
Ge   19.61635000    3.20546000    1.94836000     -0.168333    0.76031600    0.66024000
Ge   23.23996000    5.81584000    8.46006000     -0.009335    0.66063900    0.11801500
Ge    2.21023000    3.39173000    4.14387000      0.262316    0.43109400   -1.29896300
Ge    1.76209000   10.17997000    9.69040000      0.076831    0.10648600   -0.18843300
Ge    1.28465000    8.88757000    0.24226000      0.249972   -0.45627100    0.28795900
Ge   20.01074000   15.41709000    8.75130000      1.315620   -1.16568300    0.08915000
Ge    0.79128000   14.91604000   19.64057000     -0.265218    0.75158500   -0.95149300
Ge   18.92342000    1.60762000    9.00372000      1.479412   -0.77716500    0.78719000
Ge    0.97398000   20.81832000    0.52658000      0.230772   -0.55430700   -0.04077600
Ge    5.07986000    9.19780000    8.40676000     -0.912293   -0.10406000    0.55250900
Ge    1.25603000    5.06117000   19.39001000      0.938112    0.04733600    0.13493400
Ge    1.63496000    9.63996000    6.37458000      1.030990    0.86771200    0.52470300
Ge    4.29514000   11.99469000   17.02537000      0.746358    0.27863200   -0.59915200
Ge    5.77665000   18.06376000    3.83213000     -0.120034   -0.15133800   -0.41633800
Ge   22.70728000   17.60113000   18.37327000      1.214044    0.99359100    0.03149100
Ge    4.71956000   19.50327000    9.69825000     -0.260833    0.75280000   -0.56183200
Ge    3.67560000   22.00506000   17.91954000     -0.612288    0.43567600   -0.75599100
Ge    9.54630000    2.11088000    7.41101000     -0.074562   -0.09487200   -0.56371200
Ge    7.07573000    8.00218000   18.28193000      0.701071    0.03552400    0.34973100
Ge    6.50147000   12.73196000    6.61554000     -0.647047    0.16671100   -0.03040000
Ge    8.50288000    8.73147000    1.81234000     -1.116683   -0.22729900   -0.45932600
Ge    8.69491000   19.06067000    7.51387000     -0.837925   -0.59689600    0.25406400
Ge    4.70494000   19.24239000   19.47579000     -0.811798    0.09353700    0.79289900
Ge   10.98424000   21.93690000    6.42063000      0.470813    0.67412400   -0.23399800
Ge    9.91687000    2.98215000   18.07589000      0.164489    0.30798500   -0.29892000
Ge   13.82784000    6.61801000    6.20620000     -0.575212    0.01564700    0.23588200
Ge   13.89987000    8.30448000   19.05292000      1.596974   -0.50241600    1.19847500
Ge   15.56586000   12.78782000    6.27370000      0.102482   -0.49265300   -0.25727000
Ge   16.91694000   14.77231000   15.77950000      0.178817   -0.43315500    0.63282200
Ge   12.89475000   16.78983000    4.62636000     -0.878730    0.10152600   -0.56117700
Ge   15.31510000   17.28359000   15.88915000     -0.093687    1.48753700    1.28083200
Ge   15.40369000    0.63801000    9.38789000     -0.498792    0.44911100   -0.44313900
Ge   15.90217000    5.22119000   18.48456000      0.438930   -0.19736200    0.41406200
Ge   19.69543000    6.45179000    6.83368000      0.932669   -0.51799000    0.91513800
Ge   22.17281000    5.60049000   16.47055000     -0.577530   -0.74056000   -0.34154600
Ge   20.10951000    9.52323000    8.00517000     -0.057865    0.47825400   -0.21053000
Ge   21.64075000   13.19109000   17.73420000      0.276480    0.18239200   -0.92183800
Ge   18.92640000   18.37041000    7.46848000     -0.051993   -0.39688700   -0.19648900
Ge   20.45549000   18.77705000   16.40848000      0.439277    0.72305000    0.45429300
Ge   19.85938000    0.28834000    5.16846000      0.367911   -0.11097400    0.57055700
Ge   20.09902000   21.36326000    0.44027000     -0.443196   -0.25979200   -0.06069600
Ge    5.22515000    2.13853000   11.21836000      0.565565    0.05628300   -0.72058400
Ge    5.73417000    3.30195000   17.28249000     -0.640299   -0.93478000    1.06271700
Ge    3.29832000    6.51436000    5.46471000      0.243311   -0.07202000   -0.29838900
Ge    2.99438000   10.02681000   12.82878000     -0.112919   -0.13252600   -0.54600100
Ge    2.77186000   17.21267000    6.84169000      0.971032   -0.49141200    0.30166200
Ge    1.34156000   14.07580000   15.37430000     -0.356361   -0.18746700    0.59005800
Ge   22.66834000   21.05268000   10.39153000     -0.527471    0.08105500   -0.20875400
Ge    2.70200000   23.00573000   14.83522000      0.823771   -1.03190900    0.08048100
Ge    9.88125000    2.65653000    3.07855000     -0.145812    1.45452800    0.15003900
Ge    8.68417000    1.62884000   16.17619000      0.038893   -0.46423000    0.23647500
Ge    8.95488000   10.71468000    5.67566000     -0.378376    0.36911500    0.18633400
Ge    7.44202000   10.26844000   15.71206000      0.450318    0.34701100    0.29789000
Ge    9.59906000   14.93541000    6.31692000     -0.441015   -0.42899700   -1.17065500
Ge   15.54884000   10.93425000   15.71179000      0.927158   -0.05810400    0.21451700
Ge    7.86966000   21.35131000    4.59164000      0.391960   -1.00320800    0.08948700
Ge    8.57389000   19.95762000   16.08005000     -0.785630   -0.38503300   -0.62928000
Ge   15.09187000    1.66432000    6.20633000     -0.537730    0.07352000    0.73696600
Ge   13.06982000    2.55065000   15.68543000     -0.768069   -0.92182400    0.83960300
Ge   15.29580000   10.11891000    4.43027000     -1.238817   -0.35735600    0.24249600
Ge   15.78062000    7.36175000   15.11347000     -0.195537    0.45307200   -0.66221500
Ge   15.91777000   14.13569000    3.49484000     -1.100752    1.11587900    0.70048200
Ge   12.40347000   16.11357000   15.21181000     -0.534220   -0.10778600    0.77846400
Ge   13.81245000   19.63838000   18.53490000      0.696591    0.13115700    0.55632900
Ge    9.82273000   21.20237000    0.82277000      0.389589    0.35907400    0.16768400
Ge   23.34873000    4.53279000    3.81401000      0.086902   -0.55555800    0.85067100
Ge    0.44110000    2.39260000   15.64752000     -0.030063    0.15566700   -0.82259700
Ge   21.62309000    8.77030000    5.88036000     -0.367541    1.10282300    0.49769800
Ge   21.33872000   10.11535000   14.06056000     -0.559617   -0.39384900   -0.09544300
Ge   22.45318000   16.07544000    5.61906000     -0.569564    1.92844000    0.99240300
Ge   19.47723000   14.25398000   12.69571000      0.382614   -0.55466000   -0.22497000
Ge   19.85168000   20.73357000    5.96651000      0.344521    0.24518800   -0.41149800
Ge   21.17016000   23.46449000   17.73979000     -0.638844   -0.88269300   -1.52693600
Ge    6.00781000    4.45897000    5.96114000      0.398178   -1.30338200    0.09757200
Ge    2.82803000    2.99824000   13.99475000      1.286435   -1.20213000    2.16006700
Ge    5.28969000   10.91065000    3.92198000     -0.149468   -0.46978100   -1.27351700
Ge    6.94000000    9.40970000   12.40593000      0.271026   -0.27649400   -0.00125500
Ge    5.46638000   15.09915000    0.81504000     -0.696606    0.88795200   -1.50279300
Ge    4.77099000   12.97182000   13.53362000     -0.503352   -0.73892100   -0.69829900
Ge    4.76101000   22.47110000    5.58176000      0.119327    0.09210300    0.13593000
Ge    5.89912000   21.11345000   14.16836000      0.106630    0.75610200    0.64860900
Ge   14.96913000    6.09697000    3.40098000      0.893460   -0.50090000   -0.22836200
Ge   13.31699000   23.68933000   12.60868000      1.212953    0.26799200   -0.46324500
Ge   10.59852000   10.21668000    0.92949000      0.551479   -0.00684900   -0.04723600
Ge   13.57657000    9.13676000   12.01376000      0.629518   -0.68722400    0.89977200
Ge   10.96611000   13.21298000    1.77372000     -1.090954   -0.07549800    0.84908200
Ge    8.75254000   17.09158000   11.55731000      0.106427   -0.23596900   -0.78153500
Ge   12.60228000   22.09479000    1.57575000      0.299851   -1.50381700   -0.98216800
Ge   11.24887000   23.08503000   13.80006000     -0.483018   -1.40437900    2.13901900
Ge    1.18566000    0.89591000   18.59972000      0.323577    0.15740300    0.44944700
Ge   12.07186000    5.83199000   12.73916000      0.733605   -0.20702100   -0.40136700
Ge   17.61973000    7.60988000    0.13246000     -0.103589   -0.81171800    0.22001600
Ge   12.38308000    6.58525000    8.68065000     -1.179655    0.53061500   -1.18367400
Ge   20.73483000   13.59983000    2.57736000      1.640741   -0.26857100   -0.27498600
Ge   15.70940000   17.76001000    8.66157000      0.097230   -1.88699400    0.97735300
Ge   17.57463000   21.16583000    3.45566000     -0.831055   -0.52230300   -0.30684400
Ge   19.05148000   21.64356000   13.77693000     -1.170941    0.71393300   -1.84312000
Ge    0.60855000    1.25621000    2.96485000     -0.346332   -0.52420900    0.33958700
Ge   22.24071000    1.91789000    9.68007000      1.307591    0.71927600    0.07121500
Ge   23.04711000   10.04495000    2.62205000      0.025205    0.20317300   -0.26490100
Ge   23.60514000    8.84778000   12.64378000     -0.722007   -0.09027700    0.86417700
Ge    2.89290000   13.61801000    2.95947000      0.533877   -0.66770500   -0.49514900
Ge    0.51069000   16.77074000   11.18551000     -0.261351    0.24674100   -0.00659700
Ge    0.21608000   21.82973000    4.61597000      0.027319   -0.73166800   -0.35203900
Ge   20.70316000   17.48968000   11.63196000      0.469380    0.90010800    0.56523900
Se    2.68138000   22.92042000    0.22100000      0.328118    1.07822500   -0.23392100
Se    1.27369000    1.65135000    9.62787000     -1.011441    0.39630700    0.05484700
Se    1.29699000    6.54757000    1.38357000     -0.200751    0.91991400    0.10617300
Se   23.16475000    9.90597000   10.64159000      0.190261   -0.15677600   -0.37613700
Se   22.22664000   11.87609000    1.15723000     -0.421429    0.63252500    0.26899300
Se    0.28856000   13.65993000    8.72132000      0.245110    1.32872500    0.30499500
Se    1.79466000   19.58718000    3.95104000     -0.583166    0.57548400    0.65565200
Se   22.98027000   19.12094000   11.84974000      0.035235   -1.38943500    0.38925700
Se    6.99170000    2.25420000    2.52232000     -0.203233    0.43966400    0.16968600
Se    5.15461000    3.37771000   13.50641000      0.418506    1.13662000    0.14592100
Se    9.63980000    4.78791000    5.34757000      0.204804    0.42730600   -0.36682500
Se    8.06359000    9.08735000    9.85957000     -0.406409   -0.63385600    0.18464300
Se    7.86064000   10.36946000    0.04024000      0.433226   -0.49213600    0.03353600
Se    7.43430000   14.98271000   11.54022000     -0.028648   -0.12082800    0.50908000
Se    7.07490000   20.12842000    2.37468000      0.267836   -0.23195800    0.20664500
Se    9.14295000   20.80324000   12.35021000     -0.027420   -1.05777700    0.45775700
Se   12.25943000    0.46117000   19.84109000      0.562240    0.31746500    0.53023500
Se   12.57740000    2.32111000   11.88941000      0.567707    0.34047400    0.19222300
Se   11.80818000    8.81106000   18.45334000     -2.723457    0.05204500   -1.25563100
Se   10.43951000   10.09122000    7.80746000     -0.589666   -0.05577200   -0.24236400
Se   13.22033000   13.46779000    0.99008000      1.083464   -0.37790100   -0.43130000
Se   12.01436000    8.79827000   10.05950000     -0.618638    0.16681100   -1.14514500
Se   15.16645000   17.10381000    0.92631000     -0.612706   -0.41202800   -1.17289000
Se   11.62883000   19.82856000   11.82144000      0.210821    0.51044400   -0.03000700
Se   19.48064000    3.64924000    4.42943000     -0.415696   -0.83227300   -0.16526700
Se   13.83063000    3.49038000   13.68407000      0.268786    0.74868000   -1.30635300
Se   16.21463000    5.18382000   15.99118000     -0.550101   -0.22588300    0.64856000
Se   20.00319000    3.57109000   13.50481000      0.556220   -0.32257600    0.48383300
Se   19.16538000    9.47159000    1.09414000      0.291425    0.09878500   -0.58634600
Se   16.22498000   19.28566000    7.12186000      0.562005    1.52240900   -1.44435800
Se   19.32067000   17.60426000    0.82061000      0.267655    0.45630600   -0.35612100
Se   20.20356000   19.05209000    9.67210000     -0.298229    0.39367400    0.16486000
Se    3.25591000    0.38056000    4.06302000      1.114286   -0.16310700   -0.19399000
Se    2.92434000    5.82295000   11.82475000     -0.749350   -0.06694800   -0.26165200
Se    5.77242000   11.65044000    0.68790000      0.123712    0.19717800    0.15398900
Se    4.70983000   12.73227000   10.76576000      0.345359    0.37476300   -0.27994200
Se    3.89387000   13.43375000    0.23079000     -0.772173   -0.82763000    0.87715400
Se    3.19622000   17.24585000   10.77629000     -0.088760   -0.41049900    0.27066100
Se    5.91331000   21.74886000   18.84885000      0.211929    0.15519200    1.01505000
Se    5.08540000   20.25315000   11.94027000      0.164737   -0.15563900    0.25309200
Se   10.81940000    6.12078000    1.61106000     -0.123568    0.42067300   -0.51748900
Se    8.00271000    3.01265000   11.20000000     -0.709246   -0.77572300   -0.90548900
Se   10.71158000   12.42306000   18.49218000     -0.576515    0.01596300    0.50629500
Se   10.36335000   11.48045000   11.65987000      0.541540    0.19558700   -0.87744100
Se   11.32052000   15.71890000    2.60865000      0.515394    0.16965900   -0.13192200
Se   12.45763000   15.77943000   12.85029000     -0.684530   -0.13177300   -0.59621300
Se   10.96257000   23.45286000   18.20684000     -0.990368    0.17242600   -1.44246600
Se   10.21382000   23.23263000   11.69351000      0.154649    0.53615300   -1.72384200
Se   12.10389000    4.22629000   17.19391000     -0.200488   -0.40740300    0.08312200
Se   18.04183000    8.43885000    9.22697000     -0.542338   -0.31259900   -0.27088200
Se   16.79939000   10.19720000    2.62948000      0.354598   -0.20913300   -0.11939500
Se   18.20124000   14.03111000   10.37318000      0.124023   -0.66549900    0.67787000
Se   19.17207000   15.40645000    2.23550000     -0.182760   -0.15304800   -0.29950600
Se   14.12930000   16.04562000    7.81040000     -0.063335   -0.32756200    0.16905900
Se   17.79977000   23.37280000    0.39001000      0.710260   -0.12606500    0.42259500
Se   17.33602000    0.97586000   10.76643000     -1.289479   -0.45747500    0.53693200
Se    0.82485000    2.63995000    0.84908000     -1.680631   -0.19668200   -0.22252400
Se   22.33351000    4.33619000   10.28141000     -0.260762   -0.40580500   -0.04673200
Se   21.73128000    4.85116000    2.17243000     -0.531699    0.51998900   -0.75009200
Se   20.85354000   11.70630000   12.17188000     -0.183261    0.73077400    0.17262700
Se   22.77470000   14.37998000    4.18041000      0.404892   -1.35114300   -1.10953200
Se   21.75302000   15.39808000   10.86058000     -0.354341   -0.15173800    0.54098400
Se   23.13028000   21.99435000    2.34569000      0.048678    0.80914000    0.25459500
Se   21.44857000   23.58056000   15.06270000      0.275773    0.83033600    0.91610100
Se    4.26036000    3.92616000    9.48220000      0.066380    0.32166000    0.75122700
Se    4.54289000    5.96791000   18.28676000     -0.220013   -0.36582600    1.20994600
Se    4.26578000   11.91515000    8.37381000      0.178876   -0.11589100    0.12033100
Se    4.54712000    6.87417000   15.19094000     -2.163904    0.08405500    0.70960300
Se    6.44520000   19.63225000    6.14961000      0.505724    0.46427600   -0.27182700
Se   22.02574000   15.17472000   19.08676000     -0.026263    0.39417300    1.15027200
Se    1.27772000   21.86807000   10.91626000     -0.054304   -0.15508100    0.48479700
Se    2.32602000   19.92833000   18.17766000      0.289834   -0.43636700   -0.13340100
Se    7.36512000    3.04075000    7.70674000      0.027868    0.24818500    0.22641100
Se    5.55449000    4.25148000   19.80729000      0.395284    0.20937500   -1.22713000
Se    6.39238000    9.86017000    5.87076000      0.469449    0.42181100    0.90202200
Se    4.19936000    9.18511000   19.30816000     -0.377110    1.27226300    0.06123800
Se    6.74866000   18.36267000    9.51363000      0.867441   -0.49693200   -0.36141000
Se    6.04143000   15.29076000   18.37032000      0.461750    0.52439800   -0.04092400
Se    9.49391000   20.97776000    8.94612000      0.266330   -0.62111300   -0.39796100
Se    9.17809000    3.20473000    0.41823000     -0.037293   -0.26024900    0.21023600
Se   14.40233000    2.68852000    8.69527000      0.529048   -0.47823000   -0.22798700
Se    8.34063000    5.24291000   17.75241000      0.511041    0.04937100    0.34804500
Se   10.19678000    5.16322000    8.51207000      0.285876    0.79177700    0.40513500
Se   18.08592000   11.68625000   16.14683000     -0.039446   -0.62043200    0.57879500
Se   13.29170000   19.47124000    8.39919000      0.400913   -0.56314900   -2.00748000
Se   14.85863000   15.70379000   18.03128000      0.589920    0.53514800   -0.45393500
Se   15.64776000   22.79430000    7.43042000      0.100791    1.21278300   -0.21172700
Se   19.04145000    3.17682000   16.89292000     -0.243805   -0.16456200   -0.70485400
Se   17.72127000    3.96777000   11.15899000     -0.489065    0.12036000   -0.02849900
Se   23.21486000    3.57908000   17.59396000     -0.451443    0.07504500   -0.10942500
Se   19.09135000    9.23750000   13.25917000     -0.529158   -0.76950300   -0.20073600
Se   19.93653000   10.13252000   16.80322000     -0.090684    0.27413500   -0.29004800
Se   15.80073000   18.63470000   10.99717000      0.626289    0.17318800   -0.35655400
Se   18.95733000   14.52467000   17.70724000      0.149159   -0.27956400    0.40272700
Se   18.48924000   23.03502000    7.91502000      0.433304   -0.05942800   -0.53432500
Se   18.00328000   19.69233000    1.37572000      0.089414    0.84777400   -0.54231400
Se    4.55800000   22.14562000    9.19101000      0.488798   -0.19842300   -0.03576500
Se    3.05373000    3.36453000    0.76600000      1.547271   -0.69033000   -0.63233500
Se    6.86077000    6.90894000   10.09347000      0.586088    0.14941400    0.30024100
Se    4.96154000    7.40411000    0.74037000      0.360625   -0.60593100   -0.05799300
Se    5.70783000   16.23174000    6.89178000     -0.214929   -0.92796000   -0.32047300
Se    6.99166000   11.97651000   17.48262000     -0.583890   -0.26551900   -0.29420400
Se    2.71060000   19.20134000    8.43828000     -0.332574    0.09135000   -0.01496700
Se   22.31779000   19.57069000    0.77907000      0.051472   -0.39011600   -0.60121300
Se    9.06322000   23.45447000    7.12037000     -0.103172    0.14138400    0.35822000
Se   12.12241000    4.30268000    2.28125000      0.175455   -0.45095300    0.06518500
Se   11.15917000    2.24534000    9.15371000      0.108620    0.95195300    1.00563600
Se    8.30705000    6.58595000    0.55300000      0.258034    0.10614700    0.14997600
Se   11.00271000   13.88797000    7.91923000      0.538960   -0.05052600    0.42830400
Se    8.94037000   13.65240000    0.27218000      0.717768   -0.01937600   -0.14551700
Se   13.62346000   22.87908000   10.25746000     -0.578381   -0.03866200    0.44037300
Se   14.91493000   12.75394000   17.09914000     -0.417014    0.51394700    0.04199500
Se   18.06846000    3.23723000    7.56467000     -1.123888    0.31415600   -1.27063400
Se   17.25832000    4.87630000    1.84241000      0.729952   -0.30402500   -0.66845000
Se   15.46989000    7.96034000    8.98474000     -0.331979    0.21531400   -0.15764100
Se   15.65686000    8.98742000   17.28076000     -0.076271   -0.80928200    0.40308500
Se   14.98240000   13.85251000    8.32445000     -0.647904    0.28559000    0.75452800
Se   16.05488000   12.65670000   19.55925000     -0.426392    0.31763100    0.11383500
Se   13.93967000   19.96225000    3.43301000      0.536411    0.12723200   -0.67414300
Se   19.80870000   21.33959000   17.71693000      0.153487    0.26129300    0.74505700
Se   21.60970000    1.11010000    7.43697000      0.369011   -0.34005800    0.10874000
Se    0.49259000   23.62539000   15.89818000     -0.267356    0.25038000    0.26449500
Se   20.89811000    7.62292000    9.21872000      0.633607   -0.97459200    0.09218800
Se   22.72019000    7.88650000   16.74058000      0.405685    0.30765600    0.64756700
Se    0.00300000   11.23011000    7.89495000      0.354571   -1.15930700   -0.45960000
Se   22.17145000    8.24282000   19.09956000      0.165551    0.00554800   -0.46866500
Se   21.34585000   17.32122000    8.04359000      0.156905    0.53410900   -0.85547500
Se   18.93403000   17.66795000   18.33606000      0.127100    0.22533400    0.13596200
Se    1.02877000   23.15526000    8.97014000      0.213572   -0.18090700   -0.67898600
Se    3.52950000    0.65305000   12.83930000     -0.503103   -0.10075500   -0.01218900
Se    2.37308000    8.04990000    8.39600000      0.567487    0.55348900   -0.36092500
Se    2.36617000    8.50628000   17.92943000     -0.216297   -0.38695500   -0.29759600
Se    0.90932000   16.12709000    8.66388000     -0.067354    0.04556200    0.17655400
Se    1.02383000   13.14470000   18.01547000     -0.063892   -0.31775100   -0.06728800
Se    3.51419000   19.72141000    5.71694000     -0.216376   -0.29369100   -0.25795600
Se   23.21077000   19.44582000   16.65621000     -0.713573   -0.45279500    0.03666200
Se    6.88807000   23.50491000    4.78729000     -0.560224    0.28475200   -0.52098600
Se    6.29715000    0.90169000   17.75729000     -0.262442    0.54086700    0.11311700
Se   11.49668000    6.41698000    4.63113000     -0.840012   -1.13342500    1.22029700
Se    6.60647000    7.83150000   15.69952000      0.838309    0.16714100   -0.07572200
Se    7.70442000   15.08517000    7.88261000     -0.703105    0.08803900   -0.36140800
Se    8.79184000   18.61452000   13.62511000     -0.514332    0.77327400   -0.45863200
Se    7.65210000   16.43825000    3.09223000      0.197174    0.13404900    0.27041800
Se    9.48444000   16.27476000   15.23045000     -0.000387   -0.08198600   -0.76166200
Se   14.38627000   21.66081000    5.08788000     -0.049001   -0.28371600    0.63621900
Se   14.16163000   22.87958000   16.00619000     -0.545919   -0.60378700   -0.81029500
Se   13.34253000    7.94000000    3.96287000      0.982297    1.22923000    0.23696300
Se    9.10047000    7.92679000   13.70344000      0.783380    0.16731600   -1.73150300
Se   13.61310000   12.20720000    4.78675000      1.394687    0.41106700   -0.48490900
Se   14.66640000   15.42089000   14.57055000      0.093954   -1.33211300   -0.98445800
Se   11.89440000   19.34197000    4.22937000     -0.286009   -1.28060200    0.44446000
Se   15.91891000   20.27765000   17.56399000      0.078507   -0.02117200   -0.08201600
Se   18.03575000    1.58837000    4.36210000     -0.236861    0.97041500   -0.18513300
Se   19.43106000    1.42408000   18.31151000     -0.287748   -0.23475600    0.96098500
Se   19.54085000    8.29558000    4.63890000     -0.966189   -0.11004800    1.28111500
Se   19.75540000    5.51267000   17.23962000      0.648723    0.42871900   -0.42244600
Se   19.75499000   12.08652000    4.06315000     -0.087115   -0.91080000    0.83748600
Se   16.92174000   12.58837000   12.11098000      0.017064    0.68121700    0.09435800
Se   19.50141000   18.56563000    4.59769000     -0.325582   -0.41702200    0.28855300
Se   20.85325000   20.59092000   14.48978000      2.126455   -1.23145000    0.81784500
Se    5.60113000    6.66031000    6.52438000     -0.291595    0.62846700    0.49018300
Se    3.33536000    3.45809000   16.70531000     -0.443209    0.17161500   -0.58076800
Se    3.19960000    9.33931000    3.36208000      0.749365   -0.04495200    0.20653800
Se    4.82638000   10.34701000   14.47571000     -0.053651    1.23316500   -0.01437700
Se    4.57578000   14.08358000    5.32845000      0.631855    0.52811600    0.30383400
Se    1.60231000   17.10762000   18.75635000     -1.106948   -0.65631500    0.11104100
Se    1.58890000    0.00128000    5.59101000     -0.677308   -0.45982500    0.86076300
Se    3.10103000   20.76968000   13.08070000      0.213694   -0.22950600    0.75573800
Se   12.61096000    0.55929000    6.33808000     -0.045075   -0.35986000    0.18792200
Se    6.93882000    4.83227000   15.90122000      0.537381   -0.64369500   -0.41583600
Se   11.88642000   11.77835000    7.01845000     -0.337205    0.33480100    0.12257000
Se   11.04431000   14.60231000   17.26428000      1.087866   -0.00942600    0.67275800
Se   10.30368000   16.84037000    9.32371000     -0.165503    1.33210600    0.67120700
Se   11.03196000   20.26345000   18.54985000     -0.213227   -0.43551300    0.26210500
Se   10.56884000   21.90189000    3.75129000     -0.918336    0.11411500    0.19184600
Se    8.53623000   20.98256000   18.38895000     -0.199294   -0.41945700    1.12586000
Se   15.52150000    4.91285000    5.73765000     -0.560569    0.40526600   -0.43719300
Se   13.93755000    6.13533000    0.20675000      0.148388    0.02029600   -0.78069600
Se   16.31998000   10.42426000    6.52939000      0.305238    0.54653200    0.67829900
Se   18.15980000    6.86993000   13.38031000      0.472093    1.01877400    0.13595400
Se   17.33578000   14.24989000    5.58254000     -0.444630   -0.38026300   -0.79327600
Se   12.63991000   18.37300000   15.71490000      0.767016    0.24639200    0.25288700
Se   15.31164000   23.56331000    4.09364000      0.504882   -0.48276300   -1.14244100
Se   17.62712000    3.57931000   13.53687000     -0.029330    0.21409700   -0.22687800
Se   22.28887000    4.98088000    6.37763000     -1.164270   -0.08874000   -0.17339600
Se   22.77620000    5.59337000   14.04472000      0.030756   -0.37342300   -0.24373700
Se   17.46261000   10.54424000   10.72835000      0.605116   -0.12839500   -0.38279400
Se   21.92348000   14.36873000   15.29216000      0.315203   -0.03371400    0.25683800
Se   17.79227000   16.11106000    8.27841000     -0.964232    1.58751000   -0.31140800
Se   22.09360000   17.00818000   15.44004000      0.670587   -0.80188000    0.79078500
Se   20.89140000   22.71248000    8.41234000      0.031334    0.43615200    0.05755500
Se   22.95338000   23.15254000   19.25159000     -0.113293   -0.15738600    0.34643100
Se    4.28057000    2.79615000    7.48329000      0.403113    0.07309100   -0.77613600
Se    5.19374000    0.32600000   14.60521000     -0.284336   -0.51010800    0.13632600
Se    4.07487000    5.29464000    3.23796000     -0.391694   -0.61061700    0.68223200
Se    4.56787000    8.47163000   11.18410000     -0.081208    0.54265900   -0.00125500
Se    1.74978000   11.13571000    3.58127000     -1.012351    0.83627200   -0.02289900
Se    4.74797000   14.14717000   15.60719000     -0.793771   -0.11470600    0.35521700
Se    4.24141000   17.03978000    1.25473000      0.110088    0.70995300    0.64114700
Se    3.47697000   16.84379000   13.04663000     -0.580735   -0.24429000    0.68159600
Se   10.55761000    0.52744000    2.11944000      0.040001   -0.62820500   -0.20836800
Se   10.84008000    1.63574000   14.64097000      0.247737    0.98436600    0.75807900
Se    9.67362000    9.40904000    3.81505000      1.146835   -0.19218500   -0.28897400
Se    9.18641000    8.64983000   16.69183000     -0.490251    0.55085100    0.38762300
Se    8.87787000   13.03830000    4.47658000      0.237182    0.09891200    1.46105400
Se   12.53974000   11.22140000   12.76955000     -0.051528    0.62738000   -0.25945400
Se    9.24298000   18.97204000    2.00695000     -0.431476    0.32365400   -0.56590300
Se    9.10067000   22.26545000   15.63778000      0.233560    0.96627100   -0.67925400
Se   19.03389000    4.97600000    8.78467000      0.128361    0.41702300   -0.08525800
Se   14.82525000    1.11300000   17.04232000      0.105581    0.41740700   -0.05473200
Se   17.07343000    7.74834000    3.64818000     -1.254347    0.17934800   -0.35334200
Se   12.87086000    7.46582000   14.31407000      0.321329    0.41802100   -0.19276200
Se   17.23999000   12.74876000    2.06951000      0.609817   -0.98636500   -0.97283600
Se   19.25234000   18.39293000   14.15294000     -0.102190    0.21935600   -0.19463200
Se   15.61375000   17.08153000    3.15270000     -0.128200   -0.47380700    1.08789400
Se   17.13277000   20.38341000   13.89848000     -1.000831   -0.44549900    0.38831500
Se   22.58568000    2.16021000    4.48560000      0.233502    0.18394700   -0.49478500
Se   22.10839000    0.79360000   11.78070000      0.096243   -0.29886000    0.15232200
Se    0.11603000    8.02894000    5.55948000     -0.306195   -1.16730400   -0.80379100
Se   21.58243000    7.01745000   12.55021000      1.100902    0.52868700    0.79463600
Se    0.63381000   17.81365000    5.95480000     -0.680192   -0.40131600   -0.22854800
Se    1.16206000   11.65076000   14.61542000     -0.069477    0.30655500   -0.56042900
Se   22.36723000   20.52984000    5.88732000      0.285484    0.19183500    0.32742800
Se   19.88995000   21.11601000   11.27821000     -0.022391    0.59854800   -0.00948200
Se    2.43920000    4.15852000    6.43189000     -0.547345    0.32526300    0.86611900
Se    1.49954000    3.80392000   12.39971000     -1.060925    1.28242900   -1.54210000
Se   21.91686000   11.05276000    4.67604000     -0.059801    0.18338600    0.39401300
Se    1.80993000    7.55172000   13.35178000      0.033847    0.19225300   -0.05985900
Se    1.28498000   15.21900000    2.11543000     -0.553444   -0.13279300   -0.11410800
Se    0.94387000   16.27542000   14.16698000      0.783491    0.37620900   -0.83135600
Se    3.22112000   19.88649000    2.15627000     -0.062322    0.53074700   -0.88317600
Se    6.13701000   17.75026000   18.22019000      0.940776   -0.80969100   -0.74720100
Se   11.31362000    2.57886000    5.81360000     -0.166727    0.21868100   -0.82952600
Se    8.18338000    2.36145000   13.44474000      0.005577   -0.54308100    0.15161200
Se    6.29613000    8.59451000    2.98195000     -0.364078   -0.06098800   -0.37897100
Se    9.24973000   10.73980000   13.49315000     -1.137309   -0.44385300    1.06838000
Se    7.03299000   14.26474000    2.29003000      0.827752   -0.64257100    0.53752000
Se   10.02526000   15.26203000   12.97597000     -0.007525    0.13462400    0.46321900
Se    6.52292000   23.28827000    9.93022000     -0.105301    0.11840900   -0.17116800
Se    5.73456000   20.15387000   16.33540000      0.368033   -0.28225000   -0.63946400
Se   13.18586000    0.30512000    2.74883000      0.761113    1.87700900    1.69049400
Se    9.62352000    5.37141000   13.23604000     -0.264563    0.02309400    0.65404800
Se   13.57420000    9.63371000    1.19829000      0.077125    0.69401600    0.17438400
Se   15.24202000   11.04906000   13.30162000     -0.151545   -0.28087400    0.69251300
Se   10.15383000   17.11622000    5.53805000      0.372594   -0.41450300    0.28925900
Se   13.56933000   18.33368000   11.49650000     -0.193528   -1.21714500    1.06957300
Se   14.80039000   21.25937000    0.63467000     -0.204899    0.28346600   -0.73053700
Se   15.19622000   22.27196000   13.84490000      0.187542    0.46105000    0.29877500
Se   18.90757000    5.25441000   19.70745000     -0.697106    0.45961500    0.98575400
Se   14.21428000    6.13583000   10.00025000      1.668037   -0.80777100    0.99605700
Se   20.45887000    8.13594000    2.62549000      1.124107   -0.52033900   -1.93647500
Se    2.16435000   12.64874000   12.52617000      0.588121   -0.30483000    0.89777000
Se   21.54389000   17.70148000    3.88705000      0.131049   -0.15130300   -0.07505800
Se   17.95530000   16.24314000   13.98208000     -0.193758   -0.31809100   -0.22214600
Se   19.76012000   22.01698000    3.54842000      1.045107    0.55022300    0.33732600
Se   19.02817000    0.23129000   14.57479000      0.199671    0.05671000   -0.19971900
