384
23.69824000 23.69824000 19.89960000
Ge    5.60576000    5.90646000   11.93252000      0.702771    1.04951400    1.81186300
Ge    5.11514000    4.36174000    2.87991000      0.287899   -0.96854800    0.19769600
Ge    3.13352000   11.96557000    6.94419000     -0.019831   -0.49267900    0.34550300
Ge    9.05015000   13.95191000   17.10984000     -0.534823    0.36396600   -0.08207600
Ge    4.90052000   15.66908000    9.54868000      0.727799    0.34518500    1.12708900
Ge    9.16078000   18.28000000   19.22308000     -0.207525   -0.18265300   -0.28700200
Ge    7.39019000   23.66497000   11.09916000     -0.827102    0.61065100   -0.12601700
Ge    5.61363000    2.31193000    0.24353000     -0.136111   -0.33140100    0.25304900
Ge    8.65063000    4.87775000   11.67044000      0.145681   -0.28260500   -0.68459800
Ge   11.26277000    5.17736000   18.35731000     -0.252676   -0.48431400   -0.52112300
Ge   11.89123000    9.20188000   11.40407000      0.574589    2.01202400   -0.39200800
Ge   13.57536000   12.73970000   18.40545000      0.150002   -0.21041100    1.13404200
Ge   11.37896000   17.58667000    8.91475000     -2.501437    1.14767600    1.26538700
Ge   13.52258000   16.53242000    0.99194000      0.139092   -0.95493000   -0.60770700
Ge   11.21932000    0.48101000   10.09261000      0.113091   -0.61865400   -0.34643700
Ge   16.19945000   22.13880000   18.92859000      0.380684    0.52181400    0.49022400
Ge   19.44366000    4.88698000   11.87937000     -0.145255    0.32736400   -1.09396700
Ge   19.67868000    8.49289000   17.46086000     -0.021905   -0.19818700    0.92887000
Ge   19.65358000   12.98492000   10.01307000      0.282505   -0.10604800    0.39037300
Ge   18.47343000   12.24505000   18.59282000     -0.656239   -0.34259000   -0.02373600
Ge   14.44809000   18.67101000    9.04606000     -0.115836   -0.79157400    0.34298700
Ge   18.62595000   16.16452000   19.47657000     -0.758741    0.34003200    0.58360600
Ge   19.37464000    1.52520000   11.03848000      0.577189   -0.31553200    0.41175300
Ge   18.62628000    3.69504000    2.31126000      0.658178    0.06386100    0.34814400
Ge   23.30566000    6.09459000    8.88698000     -0.141158   -0.96693500   -0.13496800
Ge    1.08683000    3.80917000    3.41923000     -1.354629   -0.94371900    0.27582800
Ge    1.87551000    9.59076000    9.77205000      0.211373    0.02509700   -0.77948400
Ge    0.66561000    8.95474000   19.87759000     -1.012535    0.52347400   -0.54731600
Ge   21.79600000   15.66040000    9.35146000      0.840695   -0.05091400   -0.13710500
Ge    1.66085000   14.78386000   19.44935000     -0.488680   -0.34498600    0.71264000
Ge   20.83002000   23.09715000   10.13024000     -0.619527    0.12510900    0.22544200
Ge    1.66968000   21.41042000    0.08361000     -1.022324   -0.32926800   -1.14575800
Ge    4.72466000    7.36563000    9.13996000      0.511055    0.16011300   -0.20569400
Ge    2.41582000    6.32517000   19.86208000      0.647827   -0.30819600   -0.14047300
Ge    1.42852000   10.78783000    4.67703000      1.021504   -0.76370000   -0.08888600
Ge    4.43575000   12.98047000   15.82124000      0.614439   -0.17805400   -0.25958500
Ge    5.54309000   19.91286000    2.83265000      1.200681    0.13120800    0.98577200
Ge    0.53296000   17.89159000   18.37860000     -0.745951    0.02773800   -2.76040400
Ge    5.40883000   20.57830000    8.65132000      0.266596   -0.65132300    0.55303200
Ge    3.58538000   23.17585000   17.46090000     -0.001667    0.26670900    0.53084800
Ge   11.00723000    2.43768000    6.88886000     -0.409062    0.12483200   -0.08742300
Ge    6.62217000    8.40986000   19.15542000      1.132829   -0.62952700    0.09034500
Ge    6.25660000   12.55628000    6.53171000      0.541147   -0.04474600    0.19565300
Ge    8.13388000    9.78847000    2.06155000      0.809541    0.20748500   -0.05087400
Ge    6.84323000   17.65774000    6.69315000      0.342452    1.17381200    0.26851200
Ge    5.64667000   20.62968000   18.65069000     -0.421452    0.39511800   -0.50834900
Ge   12.16439000   22.65206000    5.85450000      0.011930    0.63496100    0.24737400
Ge   10.36614000    0.01042000   17.10115000      0.240337    0.01221300   -0.35602600
Ge   12.46324000    6.94384000    6.00605000     -0.346715   -0.25497200   -0.10212800
Ge   14.56116000    7.86214000   16.95302000     -0.998091    0.50510900   -0.19662700
Ge   15.63792000   11.87922000    5.76794000      0.430395   -0.27790200    2.76896400
Ge   16.95416000   15.03412000   15.78083000      0.795887   -0.45364300    0.61497200
Ge   12.20105000   16.00274000    5.04968000      0.236268    0.45572600   -0.08200800
Ge   14.98181000   19.22751000   16.75073000      0.291373    0.25968000   -0.02844400
Ge   15.74448000    0.17970000    9.20674000      1.170446    0.34502300    1.95028000
Ge   18.24923000    3.49282000   18.39758000     -0.162745    0.05232100    0.16168300
Ge   19.82025000    5.53855000    8.36123000     -0.170313    0.24523000   -0.50118000
Ge   22.01984000    5.38001000   16.70711000      0.940412   -0.16890700   -0.09348400
Ge   19.96085000    8.49692000    7.64085000     -1.001396    0.67228900   -0.69672900
Ge   22.46910000   13.81626000   17.82973000     -0.320361    0.09101500    0.25414700
Ge   19.71516000   16.91566000    7.27085000      0.165221   -0.15646700    0.64057200
Ge   18.51151000   19.33820000   16.43025000      0.055256    1.32284500    0.33764500
Ge   20.21796000   23.60095000    7.10164000      0.308277   -0.61640900   -1.05600300
Ge   19.65537000   21.18370000    0.97179000     -0.080796    0.21331700   -0.13508300
Ge    6.37044000    2.84388000    8.91765000     -0.381703   -0.76113900    0.83718900
Ge    3.22787000    2.85745000   17.01840000      0.346495    0.65450800   -0.04978000
Ge    3.29304000    7.05115000    5.82056000      0.458430    0.67892900    0.00539600
Ge    3.15530000    8.93547000   14.11698000      0.583911    0.22065900   -0.89539000
Ge    1.36089000   17.11062000    6.44963000      1.788452    0.85978300    0.46904900
Ge    1.81546000   15.18412000   15.88411000      0.200520   -0.38379300   -0.46205400
Ge   23.60977000   20.73086000   10.35317000      0.580271   -0.00106800    0.28733900
Ge    5.05710000   21.05601000   16.14590000     -0.185271   -0.20470600    0.20480100
Ge    7.39805000    2.32788000    3.46520000      0.470887   -0.33028600   -0.77932700
Ge    8.15520000    2.46657000   15.49669000      0.224068   -0.73262800    0.52518100
Ge    8.80428000    9.99392000    4.92463000      0.626054    0.50438900    0.79041800
Ge    9.13859000   10.98049000   15.04419000      0.502846    0.36345100    0.15539700
Ge    9.07459000   14.17244000    6.53984000      0.245913    1.08800500    0.47401600
Ge   14.03858000   12.43472000   15.86054000     -0.018365    1.21533000   -0.57448100
Ge    8.65224000   21.22510000    4.73576000     -0.039389   -0.02090100   -0.15761500
Ge    8.64924000   20.02503000   16.22822000     -0.115019   -0.66783900   -0.95637400
Ge   14.49106000    1.74750000    6.21151000      0.173888    0.31985800    0.35027000
Ge   12.47696000    3.31508000   15.49126000      0.398117   -0.10368400   -0.33760800
Ge   15.36678000    8.27990000    4.67960000     -0.286626    2.15617800    0.50215100
Ge   15.57865000    9.03539000   13.73272000      0.445841   -0.03389600   -0.49865300
Ge   16.31109000   13.70813000    3.36444000      0.874845    0.79889500   -0.71924700
Ge   13.96710000   16.20369000   16.83843000     -3.272429   -1.23320500   -2.22834700
Ge   13.21719000   19.00996000    0.56552000     -0.125267    0.78370800   -0.18188700
Ge   10.70345000   21.60705000   19.13240000     -0.369203    0.11743100    0.37123500
Ge   22.58189000    4.15458000    4.94055000      1.382354   -1.48924600    0.04468500
Ge   21.08490000    2.46690000   14.46807000      1.421543   -0.10452500   -0.09488000
Ge   22.31761000    9.83011000    6.32665000      0.538690   -0.47363300   -0.23885100
Ge   19.57213000    9.75326000   13.60585000     -0.500173    0.04495800    0.34429900
Ge   22.07950000   16.84634000    2.16768000      0.970309   -1.39232600    1.28742800
Ge   19.41045000   15.94126000   14.66346000      0.459621   -0.98988100    0.41808100
Ge   20.32682000   19.64574000    4.02778000      0.996541    1.39243900    1.83984600
Ge   21.33579000    0.25175000   16.97849000      0.166763    0.65377000    1.20265600
Ge    6.22783000    4.57281000    5.59253000     -0.077626    0.78022200    0.35328300
Ge    4.11452000    1.95683000   14.35303000      0.353078   -0.90061100    0.39061900
Ge    4.58460000   12.02336000    3.07227000      0.025573   -0.19805800    0.59501800
Ge    7.64178000    8.22198000   13.25462000     -0.232072    0.83079500   -0.69386900
Ge    6.27997000   16.70666000    0.90201000     -1.114275   -0.28213900   -1.99777400
Ge    2.76423000   13.58845000   11.38632000     -0.468764    1.25531100    0.45591100
Ge    5.72545000   22.62411000    6.34251000     -0.765145   -0.27730300    0.16766100
Ge    6.80891000   20.02179000   12.84017000     -0.711946    0.38467600   -0.09030600
Ge   15.28484000    4.60343000    4.05118000      0.831104    0.18037300   -0.92552500
Ge   12.66532000    0.49604000   12.45203000     -0.521222    0.09092700   -0.40325900
Ge   11.55830000    8.16570000    0.22473000     -0.002296    0.13512300   -0.27500300
Ge   12.14275000    8.96415000   13.79384000      0.064509   -0.38706800    0.66052600
Ge   10.82082000   14.09636000    1.56444000     -0.314340    0.36899700   -0.41167900
Ge    7.80316000   16.37566000   10.45072000      0.912407    0.55859300    0.54187200
Ge   13.08656000    0.34486000    1.83982000     -0.399759   -0.44863300    0.50777100
Ge   10.86515000   21.55731000   13.26328000     -0.221452   -0.19269600   -1.31230100
Ge   23.41072000    2.65197000   18.41195000     -0.465840   -0.81007900    0.05710400
Ge   12.15411000    5.27630000   11.36915000      0.554383   -1.27126000    0.65126500
Ge   17.59568000    8.04126000   19.19628000      0.177935   -0.17873200    0.20266900
Ge   13.26150000    7.53364000    8.58917000     -0.026165   -1.16528200    0.19598400
Ge   19.55104000   12.73782000    2.69448000      1.255077   -0.78138300    0.30942200
Ge   16.35591000   14.70659000   10.03345000     -1.378100   -0.92937000    0.29882700
Ge   16.68947000   21.73656000    3.46893000      0.897128   -0.48626000    0.07542000
Ge   17.92628000   21.53650000   11.86227000     -1.238566    0.18999900    0.16351500
Ge    0.20234000    0.72365000    2.84457000     -0.984767    1.65077000   -0.34372300
Ge   22.89612000    2.06392000   10.21080000      0.189911   -0.60821900    1.00280400
Ge   22.94479000    9.26148000    2.91975000     -0.709538   -1.08894200   -0.11922800
Ge   21.92959000    9.28005000   11.83619000      0.393771   -0.39185800   -0.20099800
Ge    0.41528000   13.39119000    4.24673000     -0.010590    1.23200300   -0.23584200
Ge    0.11116000   15.67956000   11.99435000      0.013991    1.39866000   -0.67609600
Ge    0.60846000   21.22157000    3.73697000     -1.512191    0.08093700    0.92325300
Ge   21.54598000   18.64502000   13.08386000      0.837033   -1.23257700    0.45673900
Se    1.93478000    0.29642000   19.74217000      0.146282   -0.14253900   -0.40297600
Se    1.57151000    2.24240000    9.72141000      0.043699    0.30884900    0.26298900
Se    1.04832000    7.52934000    1.79956000      0.068767   -0.70992300    0.22248700
Se    0.69333000    7.65007000   10.95711000     -0.522233   -2.53859600   -1.91920500
Se    0.97495000   11.21143000    0.58048000      0.549267    0.37188000    0.28011600
Se    3.13102000   13.92416000    8.94744000     -0.996561   -0.05249400   -0.66102300
Se    2.91737000   21.01880000    3.73187000      0.592734   -0.21520000    0.06827800
Se    0.22558000   19.02128000   12.28576000     -0.225022    0.08331700   -0.49992600
Se    4.63424000    1.66520000    2.88234000      0.737858    1.24119400   -0.07305200
Se    5.71095000    2.02458000   12.23387000      0.400003    0.02198700    0.23656100
Se    8.08502000    4.82992000    3.63869000      0.087103   -0.13703600    0.26312300
Se    8.37542000    8.85427000   10.82293000     -0.211182   -0.72543700    0.19882000
Se    7.80925000   11.47911000    0.42981000      0.170260    0.45425100   -0.78002800
Se    6.67702000   14.62626000   11.56207000     -0.430056    0.03115500   -0.49346800
Se    7.81781000   21.76127000    2.36158000      0.701324   -0.88113300   -0.27656400
Se    8.69836000   20.78017000   11.48026000      0.412255    0.07939200    0.06982800
Se   14.50780000    0.98955000    0.06215000      0.174394    0.21381100   -0.62369500
Se   13.99876000    2.67594000   11.61197000     -0.101335   -0.45445000   -0.15237500
Se   11.80371000    7.39854000   17.47878000      0.360075    0.52550800   -0.22013300
Se    9.74705000   10.29886000    8.18829000     -0.743333   -0.41458600    0.37420600
Se   13.30762000   13.90457000    0.97761000      0.175661    0.10841800   -0.10209200
Se   13.93209000    9.31827000   10.03207000      0.348182    0.62745900    0.98884900
Se   15.66960000   17.17775000    2.01194000     -0.152105    0.30944200   -1.40626400
Se   12.17743000   19.14387000   11.14840000      0.548821   -0.55358000   -0.23678100
Se   17.84089000    4.02692000    4.70328000     -0.144211   -0.58211700   -0.25634900
Se   14.23304000    4.31708000   13.29812000      0.179819   -0.19048000    0.18438000
Se   17.43784000    5.09497000   16.49239000     -0.416224    0.73395000    0.80196900
Se   18.39063000    4.45024000   13.99303000      0.802928   -0.12160600    0.60234700
Se   19.20755000   10.19920000    0.34852000      0.554745   -0.61545100    0.29271800
Se   16.92979000   16.58741000    8.87883000      0.566792    1.51127300   -0.89842000
Se   20.28977000   17.76685000    0.81371000      0.258156    0.23014500   -2.02069700
Se   19.95890000   20.14590000   11.77972000     -0.299488   -0.10200900   -1.11286300
Se    2.24622000    1.69217000    3.81503000      0.183818   -0.78321500    0.75196600
Se    3.88466000    5.86911000   13.96780000     -0.251899   -0.15858500   -0.19616400
Se    5.55416000   12.10208000    0.78634000     -0.331345    0.27881200   -0.34567700
Se    4.38806000   12.01621000   10.97297000      0.947894   -1.71291800    0.02548400
Se    4.34897000   15.54513000    1.27528000     -0.260422   -0.26327700    0.15848700
Se    3.48892000   16.34116000   11.72070000     -0.560430   -0.04564300   -0.55645600
Se    5.56158000   23.11507000   19.35755000     -0.430420   -0.66558800   -0.23781900
Se    4.89738000   21.79686000   11.85508000      0.701499   -0.28867200    0.47485000
Se   12.60620000    5.61620000    0.32929000      0.825976    0.42799300    1.64736600
Se    8.54599000    2.56545000   10.25612000     -0.174162    0.28516400    0.02684500
Se   10.71011000   10.78390000    0.12103000     -0.027829    0.34720300    0.47929900
Se   11.46021000   11.88480000   11.55895000     -0.177625   -0.94862500    0.94121200
Se   11.49107000   16.52951000    2.28940000     -0.183709   -0.07237800    0.77389700
Se   11.56059000   15.17232000   13.70951000     -0.523965    0.53494500   -0.40768800
Se   12.71229000   23.23457000   18.11373000     -0.075408    0.23522200    0.67705100
Se    9.33753000   23.44957000   12.56489000      0.627174    0.39952100    0.50753300
Se   13.09126000    3.49415000   17.83944000     -0.927174    0.33518400    0.11535700
Se   17.74613000    7.68227000    9.41980000      0.437539   -0.22704700   -0.15194600
Se   15.37349000    7.02074000    0.01303000      0.178938   -0.23288000    0.50674800
Se   18.05448000   13.81361000   11.94862000     -0.066476    0.13844900   -0.09534100
Se   18.64292000   14.90995000    2.17096000      0.217957    1.01050200    1.02969500
Se   13.97436000   13.60240000    9.10901000      0.704946   -0.06304700   -0.03961000
Se   17.72343000   22.64344000    1.39900000     -0.253406    0.10347500   -1.61969000
Se   16.25577000   21.51297000   10.02019000      0.354488    0.09590200    0.05041800
Se   23.58026000    3.01438000    1.47154000     -0.352372   -0.73313700    0.22940600
Se   21.75720000    4.13038000   10.33898000      0.122392    0.60500500    0.31777400
Se   21.33232000    5.42947000    3.63703000     -1.312203    1.38626500   -2.09986900
Se   21.25733000   11.77527000   11.59627000      0.379995    0.53982200   -0.21379100
Se   22.56174000   14.00657000    2.02272000      0.246569    0.39916100   -0.23185300
Se   21.28580000   16.07234000   12.01984000      0.150346   -0.01222000    0.28113500
Se   23.08780000   22.31568000    2.01002000     -0.165887    0.01539300   -0.56000100
Se   21.70617000   22.17979000   15.45869000      0.477210   -0.06065300    0.10323200
Se    4.96224000    4.87063000    9.98827000     -1.333811   -0.88643600   -1.53047700
Se    4.09246000    5.41024000   17.19041000     -1.364390   -0.92917200    0.25593700
Se    4.33829000   10.53492000    8.70484000      0.284265    0.25762500    0.03983700
Se    4.08458000    8.94590000   17.04732000     -0.115332   -0.46633000   -1.26377100
Se    5.19264000   19.95501000    6.23790000      0.590589   -0.30403500   -0.29226700
Se   22.85623000   16.15446000   19.23984000     -0.232022   -0.68659900   -0.30032900
Se    1.48434000   22.67732000   11.94047000     -0.845785   -0.40602700    0.22092000
Se    2.65119000   20.90626000   17.74602000     -0.425201   -0.29799900    0.16680500
Se    7.74193000    3.37367000    7.07406000      0.620207    0.36891900   -0.81753300
Se    5.40720000    4.83649000    0.58192000      0.082704    0.27847500   -0.58575900
Se    7.44043000   10.25508000    7.01022000      0.224082   -0.11397200    1.05228100
Se    4.71095000    9.97273000   18.99467000     -0.472059    1.37779000    1.53043000
Se    6.07120000   18.24032000    9.90458000      0.351769   -0.41669800   -0.64993900
Se    6.11823000   17.48275000   17.83521000      0.526864   -0.12027500    0.04874200
Se    9.01001000   19.31115000    7.01137000     -0.626018    0.27647100    0.90285800
Se    8.22867000    2.16352000    0.90362000      0.536574   -0.46894400    1.09914800
Se   13.53643000    2.24199000    8.66823000     -0.693569    0.08259000   -0.15790600
Se    8.53382000    4.18624000   18.62307000      0.377044    0.17792200    0.64000000
Se   11.30280000    7.20211000   10.38120000     -1.444366   -0.29467200   -1.83257300
Se   16.07801000   13.51338000   17.76958000     -0.220894    0.19982700   -0.71076000
Se   13.15327000   16.60396000    8.01857000      2.025506   -0.70613000   -0.83799000
Se   15.80299000   17.00718000   17.71576000      2.114629    0.69167500    1.09550400
Se   14.45341000   23.16793000    7.47255000     -0.814988   -0.80968200   -1.77049700
Se   17.24919000    1.73735000   16.99696000      0.831931   -1.03291200    0.79172200
Se   17.38967000    3.34270000   11.01720000     -0.076819    0.69715000    0.30854400
Se   20.99000000    3.66524000   17.86547000     -0.230991   -0.69677100    0.79065600
Se   18.76016000   10.39410000   10.40273000      0.079544   -0.25412000   -0.05554600
Se   19.00139000   10.19651000   16.10684000     -0.022041    0.91811200   -0.27282800
Se   15.13873000   17.02213000   10.97757000     -0.054367   -0.03096000    0.23838400
Se   19.82786000   14.40221000   18.39147000      1.125885   -0.93799600   -0.51252500
Se   19.36991000   21.55489000    8.46182000      1.404435    0.17283700   -0.04454800
Se   18.91719000   18.92967000    2.25193000     -1.684443    0.03360400   -0.33596300
Se    5.50961000   23.09200000    8.87965000      0.097613    0.51722700    0.15349800
Se    3.13551000    2.35639000   19.52951000     -0.223493    0.90352700    0.14994100
Se    7.53784000    6.72069000    9.87808000      0.642547    0.73390600    0.67752900
Se    4.66230000    7.68988000    0.64499000      0.061564    0.05236800   -0.24679000
Se    2.99321000   16.38512000    4.47140000      0.296146   -0.07060800    0.50974100
Se    6.36449000   12.82183000   17.35297000     -0.417807   -0.00585500   -0.56411300
Se    2.41106000   20.82985000    8.50706000     -1.032902   -0.47489200   -0.29424800
Se    0.61863000   19.05625000    0.30895000      0.092000    1.68481400    2.92873200
Se   10.64608000    0.04146000    7.47327000     -0.905886    0.05966200    1.19263700
Se   11.69479000    3.59942000    1.79125000      0.659021   -0.00423500   -1.31586900
Se   12.15712000    4.24156000    8.56782000     -0.213264   -0.58826100    0.25633700
Se    8.75327000    7.65856000    1.48149000      0.109294   -0.64216400   -0.62325300
Se   11.12571000   13.49337000    7.68977000      0.205080    0.02300200   -0.00807700
Se    8.98482000   15.13403000   19.36724000      0.543426   -0.23707200    0.52307400
Se   12.40337000   22.01239000   10.31453000     -0.095954    0.85507500    0.28603600
Se   12.18291000   14.53399000   17.60618000      0.168802    1.22354700   -0.73866500
Se   18.38255000    0.91847000    8.71698000     -0.720292   -0.92529900   -0.01400000
Se   16.65605000    4.38649000    0.83716000     -0.703604   -0.46604500   -0.26498300
Se   16.08699000    6.25108000    8.28542000      1.474792    0.98886900   -1.29290900
Se   15.18091000   10.36351000   15.69724000      0.910825   -1.22256200    1.24370900
Se   14.67751000   11.51002000    8.26750000      0.363368    0.89013600   -0.92811200
Se   16.70552000   12.86071000    0.59767000      0.352702   -0.20109000   -0.55802400
Se   14.93566000   18.69461000    5.05405000      0.688285   -0.16617500    0.16758500
Se   18.48934000   21.37695000   17.88200000     -0.032563   -0.18617500    0.28144100
Se   22.45573000    0.34886000    8.46522000      0.009956   -0.24909200    0.60420500
Se   23.27541000    1.58043000   15.97380000     -0.890512   -0.56945600   -0.47750700
Se   21.17972000    7.43117000    9.36247000      0.707662    0.23948400    1.16510700
Se   23.32112000    6.46128000   18.51063000     -0.255533   -0.22603900    0.02508100
Se    0.68868000   10.66128000    7.64959000     -0.178428    0.90522500   -0.19968200
Se   21.06149000    8.67514000   19.39938000      0.304699    0.04090500   -0.09427500
Se   21.36644000   17.95384000    8.72949000     -0.336052    0.00470700   -0.14317500
Se   19.28116000   17.29990000   17.19908000      0.830131   -0.55623200   -0.33851200
Se    2.26778000   23.65902000   10.07037000      0.539913    0.11432600   -0.66920500
Se    2.57527000   23.43519000   14.42978000      0.757945   -0.02120000   -0.01173400
Se    2.40395000    7.38352000    8.15726000     -0.321491    0.10842400    0.24639900
Se    1.97471000    8.15993000   17.97102000     -0.594122   -0.32311700   -0.91265100
Se    0.95401000   15.82786000    9.21304000     -0.564426    0.16409600    0.10368000
Se    2.35091000   12.78291000   16.96952000     -0.519530   -0.17590000    0.73625100
Se    0.78573000   20.00684000    6.85754000      0.877524    0.06712400    0.42169800
Se   23.07400000   19.31607000   16.54585000      0.125463   -1.81377200    0.42375000
Se    7.49962000   23.48793000    4.98654000      0.560094    0.00310800    0.13763700
Se    7.02341000    2.33342000   17.97364000     -0.171428   -0.44693700   -0.38686200
Se   10.16890000    6.38619000    6.05202000      0.448158    0.13528800   -0.21709600
Se    7.34848000    7.26947000   16.50975000     -0.971594    1.90239800    0.06257700
Se    7.38655000   14.13446000    8.42876000      0.127015   -0.25733700   -1.24461500
Se    8.67788000   17.81111000   12.42609000      0.387449    0.29399600   -0.58361600
Se    6.59681000   17.72600000    4.03155000     -0.480951    0.40116400    0.02128800
Se    8.27627000   17.09311000   16.83606000     -0.349163    0.77845100    0.61223600
Se   14.26836000   21.86323000    4.51812000      0.119522    0.05972000    0.21288300
Se   13.64953000   23.25297000   15.55277000      0.160839   -0.88355400    0.27441200
Se   13.02630000    8.56998000    4.09535000      0.186622   -0.41192900    0.62296300
Se   10.01804000    7.61162000   14.64063000      0.653954    0.06363300   -0.44425300
Se   14.36459000   12.62498000    4.12326000     -2.886201   -0.26311200   -1.16276800
Se   14.98586000   14.72537000   14.56674000     -1.467150   -0.01245100   -0.32122800
Se   12.63465000   18.61610000    5.15447000     -0.528322   -0.52332000   -0.09586800
Se   15.49601000   19.75890000   19.36713000     -0.612849   -0.36469500    0.04799300
Se   18.75612000    1.41651000    3.92015000     -0.210710   -0.40473900    0.35045800
Se   19.08656000    0.58153000   18.40479000     -0.010686    0.40645400   -1.05937100
Se   19.86144000    6.74021000    6.02567000      0.096448   -0.18577100    0.32664600
Se   20.18325000    6.68664000   16.04008000     -0.853785   -0.04408000   -0.53439800
Se   19.51042000   12.10531000    5.29516000     -0.274931    0.29564500   -0.55346400
Se   18.45585000   12.91572000   14.10616000     -0.043685    0.47939100    0.42067900
Se   19.01393000   18.78031000    5.99688000     -0.038577    0.09985900   -0.51735700
Se   20.08183000   20.58203000   14.89135000     -0.454708   -0.30240200   -0.15691500
Se    5.75453000    6.89561000    6.65783000      0.099139   -0.57663100   -0.48855700
Se    1.58988000    5.07863000   16.87148000      1.546112   -0.42314900   -0.25827200
Se    3.87655000    9.76598000    4.97337000     -0.750723    0.05188800    0.39185000
Se    3.81498000   11.57233000   13.71302000     -0.051803   -0.79592800    0.41229400
Se    3.25454000   14.04552000    4.91176000     -0.345375    0.39531000   -0.15361100
Se    2.54621000   16.68437000   18.10940000      0.951859    0.15796400   -0.64996900
Se    0.21801000   22.86928000    5.58401000     -0.272244   -0.23001100    0.12960200
Se    3.84494000   21.00911000   14.02355000     -1.175487    0.88440400   -1.43112600
Se   12.33886000    1.34556000    5.00228000      0.232229   -0.05283800   -0.40697200
Se    8.22753000    5.21708000   16.48955000      0.950867   -1.16337400   -0.64522500
Se   11.34831000   11.22087000    6.85726000      0.010428    0.18559900   -0.43243800
Se   10.65810000   11.85480000   17.26913000     -0.390365   -0.13115800    0.08135100
Se   10.34626000   15.56529000    9.81187000     -0.849190    0.39280000    0.01430100
Se   11.42056000   19.31891000   18.44235000      0.471414   -0.30237400    0.46592400
Se   11.15161000   21.55212000    3.98027000     -0.909645   -0.32329700    0.22914600
Se    8.04834000   20.95571000   18.33784000      1.104559   -0.11686400    1.11500400
Se   13.59051000    4.71383000    5.75144000     -0.218649    0.16317600    0.26406500
Se   15.17184000    5.40868000   17.08636000      0.187172   -0.50806700    0.22302900
Se   17.10189000   10.09565000    5.59776000     -0.490968   -1.69173500   -0.75150600
Se   17.74371000    8.01053000   13.37170000     -0.701070    0.15454600   -0.05063700
Se   17.34366000   13.58274000    5.67399000      0.736080    0.33592800    0.63273600
Se   12.82049000   18.28164000   15.76504000      0.650555   -1.05221600    0.58675300
Se   16.43923000    0.54735000    4.16661000      0.269168   -0.00111500    0.32820400
Se   16.51923000    3.13042000   13.62883000     -0.332928   -0.31489600   -0.02298200
Se   22.38394000    4.17934000    7.22146000      0.030779    0.32207100    1.34366800
Se   22.60393000    4.59668000   14.47410000     -0.186655    0.12240200   -0.05298800
Se   19.45838000   11.09509000    8.22895000     -0.076072   -0.06873300    0.01758400
Se   21.97191000   13.08728000   15.43704000     -0.443941    0.24655700    0.21257400
Se   20.71129000   14.64294000    7.14024000     -0.496286    0.56752300    0.29900000
Se   22.35167000   17.10411000   15.58232000      0.920428    1.25570000   -0.34996300
Se   21.80906000   21.26430000    7.23090000     -0.555187    0.29865000    0.12756500
Se   22.52894000    0.14481000   19.08981000     -0.141594    0.53522700   -0.11213600
Se    4.05405000    3.20862000    6.06727000      0.107364   -0.52385500    0.05659300
Se    6.39750000    0.56680000   15.66628000     -0.223046    0.44114100   -0.18382300
Se    2.88673000    5.19860000    3.31653000      0.460341    1.59867300   -0.06356200
Se    4.96898000    8.34230000   11.85031000     -0.527005    0.09305500    0.69882600
Se    2.78913000   10.34572000    2.19731000     -0.885509    0.68283100    0.77758100
Se    3.77715000   14.79505000   14.34722000      0.257254    0.56925500    0.56244700
Se    4.71836000   19.12022000    0.54737000      0.246224   -1.13254000    0.44720800
Se    4.64506000   18.24153000   13.01526000      0.312398    0.04953100   -0.39936200
Se   10.22008000    1.79193000    2.58857000     -1.267808   -0.78441300   -0.07744000
Se   10.86624000    1.57196000   14.84447000     -0.664871   -0.47435000    0.06337300
Se   10.26960000   10.94911000    2.65313000      0.620957   -0.32952500   -0.53156300
Se    8.94311000    9.54209000   16.82178000      0.136650   -0.99307600    1.05825400
Se    8.27060000   12.90484000    4.73353000     -0.316374   -0.30736300   -0.07766500
Se   11.41777000   11.41467000   14.11555000     -0.067415    0.74570500   -0.87930500
Se   10.20930000   20.72972000    1.73376000     -0.896421    0.02644500   -0.77352700
Se   10.73768000   21.40465000   15.73089000      0.073754    0.35178500    0.66202300
Se   18.38493000    3.27453000    8.79676000     -0.251623    0.75523400   -1.14512600
Se   14.47536000    1.67088000   15.82762000      0.250178    0.81393200    0.02194400
Se   16.85374000    6.63492000    4.53026000      0.283310   -1.00227800   -0.36664500
Se   13.98675000    7.21427000   14.18162000      0.020049    0.47402500    0.12392000
Se   17.56286000   11.26183000    2.20244000     -0.864730    0.47600600    0.59690300
Se   16.95804000   18.52407000   14.57814000     -0.167460    0.45155100   -0.07001500
Se   15.85900000   16.55359000    4.17081000     -0.250594   -0.08772700    1.31587200
Se   16.22423000   20.65038000   13.59317000      0.088812   -0.10821000   -0.39113700
Se   22.36744000    1.12386000    4.82374000      0.574144   -0.22335700   -0.20741700
Se   22.88438000    1.10485000   12.64639000     -0.716852    0.75762800   -0.63305700
Se    0.61331000    8.41500000    4.94412000     -1.180157    0.25165600    0.03485700
Se   21.03732000    7.72778000   13.74750000      0.262810    0.50433200   -0.75183800
Se   23.27936000   15.98071000    5.81864000     -1.641760   -1.51403500   -0.93637400
Se    0.37592000   12.89772000   14.54320000      0.919486   -0.13694300   -0.08172400
Se   22.99658000   19.17379000    3.94342000     -0.436285   -0.28623100    0.03614600
Se   21.79422000   21.74249000   12.10071000     -0.124720    0.41753600   -0.45092300
Se    3.04717000    4.12174000    7.89582000      0.186195    0.38348000   -0.43460500
Se    2.32790000    4.13492000   14.39458000     -0.028772    0.34410700   -0.62505400
Se   21.81274000   11.11354000    4.15780000     -0.005560    0.74816900    1.08129600
Se    1.03345000    9.12423000   12.52334000      0.050483    2.80549200    3.05478200
Se    0.96308000   15.29541000    2.22010000      0.065966   -0.50253200    0.17790400
Se    0.99585000   17.00035000   14.13373000     -0.854019   -0.47492100    0.37498700
Se    3.77449000   21.28897000    1.36893000      0.303517    1.40860300    0.32083300
Se    4.83679000   18.58658000   15.45108000      0.039158   -0.33123800    0.76215100
Se   10.70412000    4.29410000    3.77867000     -1.009019    1.17962400    1.40641000
Se    7.28230000    3.51645000   13.46102000     -1.082878   -0.17514500   -0.55161600
Se    6.62633000    9.90618000    3.89045000     -0.696029   -0.10242800   -0.73940700
Se    7.25962000   10.90232000   13.81102000     -0.658052   -0.47168300   -0.96712900
Se    8.04573000   16.89608000    2.33523000      1.383996   -0.10056500    0.71530800
Se    9.31410000   15.98805000   13.75480000      0.488315   -0.90156300    0.75931900
Se    8.05477000   21.09960000    8.52222000      0.081600   -0.76730600   -1.12751300
Se    7.08996000   21.60341000   14.97226000      1.149914    0.15016000   -0.88147500
Se   15.11172000    1.82389000    2.57853000      0.027833    0.13841900   -0.54423900
Se   11.10565000    5.57297000   13.74215000     -0.320401    0.19540300    0.07109600
Se   14.30106000    8.93396000   19.25539000     -0.649329    1.31672000    0.24972300
Se   14.31879000   10.83296000   12.75074000     -0.096291   -0.21738000   -0.85442000
Se    9.82036000   16.47973000    5.49072000     -0.773719   -0.53808900    0.45061100
Se   13.09513000   17.64006000   12.76679000      0.032919   -0.11356000   -0.91993100
Se   14.23706000   21.68222000    2.07683000     -0.229273   -0.03283400    0.22284300
Se   14.44705000   22.90853000   13.32022000      0.776756   -0.56791700   -0.60199200
Se   18.21730000    6.14190000    0.91012000      1.144522    0.42632500    0.31023700
Se   14.53314000    5.52697000    9.72865000     -1.137254    0.26505700    0.49845800
Se   20.66964000    7.87593000    3.11244000      0.765362   -0.04306300    0.05592700
Se    0.23410000   13.26741000   11.76875000     -0.431933   -1.22068000    0.31407300
Se   20.18297000   15.66170000    4.10924000     -0.142337   -0.06966600   -1.18109400
Se   18.01748000   16.93756000   12.96238000     -0.031168    0.22697800   -0.21965700
Se   19.30838000   22.44453000    4.21135000      0.335346   -0.35117800   -0.06867500
Se   18.41044000   23.66748000   12.74356000     -0.042095    0.25134900    0.28626400
