384
23.69824000 23.69824000 19.89960000
Ge    5.08938000    5.93564000   13.02723000      1.110830   -0.28605000   -0.82601300
Ge    6.57683000    4.55141000    3.53948000      0.323988   -0.42646200   -0.84507700
Ge    1.84326000   12.83664000    7.11230000      0.473508   -0.07326500   -0.36260900
Ge    9.48639000   13.79905000   15.77097000     -1.073114   -0.83749800   -0.75199600
Ge    5.61986000   15.27631000   10.00492000     -0.645623   -0.22590100   -0.08983800
Ge    8.85528000   18.48502000   19.18623000      0.053308    0.00016100    0.21831800
Ge    7.97973000   23.30263000   12.38366000     -2.170744    0.21662400    0.89982200
Ge    4.83663000    0.96568000    0.53762000     -0.040181    0.27507200   -0.52988200
Ge    8.98533000    5.20454000   10.69110000     -0.089070    0.99662400   -0.02969700
Ge   11.17487000    6.12918000   18.80098000      0.022646    0.63887800    0.70750200
Ge    9.88425000    7.77311000   10.97344000      0.299744   -0.13066900    0.91785500
Ge   13.25350000   11.41653000   19.10677000     -0.063096    0.55655100    0.34343200
Ge   11.26145000   19.39130000    9.53963000     -1.316987   -0.48149900    0.91945100
Ge   12.80952000   15.75693000    0.03566000      0.512230    0.31375200    0.47137600
Ge   11.06643000   23.57695000    9.16931000      0.544571   -0.38060900   -0.70419800
Ge   16.21385000   22.77170000   18.66767000     -0.968429   -0.70022700   -0.08200400
Ge   19.87028000    5.30084000   11.68382000     -0.629632    0.16759400   -0.19119400
Ge   19.80367000    8.04207000   18.49044000     -0.379519    0.67263500   -0.07997400
Ge   19.55005000   11.82274000    9.92210000     -0.176681   -0.42928100    0.63762200
Ge   18.38772000   12.29597000   18.80717000      0.672713   -0.22318800   -0.81565400
Ge   15.26177000   20.79956000    9.04701000      0.672635    0.51459700    0.63777200
Ge   17.48105000   15.39725000   19.80858000     -0.501574    0.28516700   -0.21171800
Ge   19.73731000    1.33635000   12.05976000     -0.256517    0.12499900    0.20507600
Ge   19.64473000    3.23572000    2.03734000      0.009730    0.39862000    0.05791000
Ge   23.24789000    5.82647000    8.40781000      0.088653    0.66099500    0.41643500
Ge    2.22452000    3.45029000    4.17831000      0.250887    0.04483200   -1.95440600
Ge    1.75578000   10.19045000    9.68720000      0.059179    0.02528300   -0.22298900
Ge    1.31701000    8.80902000    0.28127000      0.301396   -0.12570100   -0.10027100
Ge   20.01056000   15.44853000    8.72265000      1.066256   -1.16704300    0.10870400
Ge    0.80331000   14.85688000   19.64623000     -0.251116    1.16101000   -0.79065400
Ge   18.96860000    1.57538000    9.01324000      1.033910   -0.14766900    0.77652400
Ge    0.95232000   20.82508000    0.51578000      0.223442   -0.56121500    0.08896500
Ge    5.06254000    9.21352000    8.44075000     -0.906848   -0.10948200    0.54691900
Ge    1.27622000    5.02081000   19.46783000      0.749035   -0.20234200   -0.53612700
Ge    1.60340000    9.63227000    6.37165000      1.546154    1.09874500    0.80316600
Ge    4.32292000   12.01841000   16.99826000      0.571636   -0.12719300   -0.25097300
Ge    5.74354000   18.03099000    3.87625000      0.046185   -0.01525100   -0.49138500
Ge   22.72006000   17.56158000   18.35907000      1.261059    1.21171400   -0.13457000
Ge    4.71087000   19.49314000    9.69309000      0.392602    0.96816700    0.14128800
Ge    3.65993000   21.99207000   17.84704000     -0.006937    0.63988300   -0.36772600
Ge    9.49559000    2.14797000    7.42660000      0.615224   -0.71295300   -0.82201000
Ge    7.15856000    8.00081000   18.25944000      0.449509   -0.06650400    0.70685500
Ge    6.50902000   12.69291000    6.58134000     -0.614802    0.14432900   -0.03015000
Ge    8.49525000    8.72992000    1.83559000     -0.998026   -0.49724100   -0.56386400
Ge    8.70659000   19.03836000    7.53339000     -0.728956   -0.51168300    0.29973600
Ge    4.69771000   19.28119000   19.42605000     -0.846650    0.16753600    0.93099700
Ge   10.99193000   21.95797000    6.42335000      0.591545    0.44567300   -0.21577100
Ge    9.89551000    3.01062000   18.04544000      0.215688    0.51545200   -0.01348800
Ge   13.82373000    6.58676000    6.25501000     -0.459231    0.06994400   -0.00828700
Ge   13.94724000    8.32103000   19.07595000      1.170650   -0.59908800    1.27271600
Ge   15.56006000   12.83886000    6.27295000      0.249705   -1.14889900   -0.19482600
Ge   16.91892000   14.72526000   15.71577000      0.186418   -0.65441600    0.82453700
Ge   12.92166000   16.78286000    4.54607000     -0.722209    0.02121500   -0.48595000
Ge   15.37472000   17.31560000   15.88345000     -0.447413    1.14626200    0.99018200
Ge   15.36146000    0.67586000    9.37606000      0.063778    0.52976700   -0.53664700
Ge   15.86572000    5.21052000   18.51327000      0.322584   -0.16148100    0.36958400
Ge   19.69600000    6.45418000    6.89091000      0.960584   -0.14675000    0.52781100
Ge   22.15464000    5.63123000   16.51079000     -0.303662   -0.90536800   -0.53598100
Ge   20.13634000    9.50343000    8.00924000     -0.177071    0.61290000   -0.33170200
Ge   21.63557000   13.23959000   17.73928000      0.214883    0.12138700   -0.97730600
Ge   18.88730000   18.38209000    7.35417000      0.087408   -0.40085500    0.30496200
Ge   20.42119000   18.76278000   16.36738000      0.542042    0.79092800    0.67067900
Ge   19.87278000    0.31372000    5.19867000      0.148807   -0.28580700    0.26061700
Ge   20.05644000   21.43239000    0.47321000     -0.535796   -0.36108700   -0.24652700
Ge    5.26198000    2.18944000   11.22352000      0.590496   -0.33433800   -0.53355600
Ge    5.68719000    3.25645000   17.25430000     -0.335622   -0.92015400    1.42646000
Ge    3.25201000    6.47878000    5.55830000      0.603803    0.21474400   -0.51863000
Ge    3.01231000   10.07586000   12.85795000     -0.310355   -0.24943700   -0.84279800
Ge    2.76576000   17.24287000    6.82364000      0.728644   -0.45371600    0.19182700
Ge    1.37871000   14.05064000   15.38228000     -0.213602   -0.02565100    0.43402200
Ge   22.65686000   21.12983000   10.42890000     -0.623115    0.03530000   -0.31292800
Ge    2.66599000   22.97048000   14.78665000      0.886224   -0.86233600    0.21434400
Ge    9.87599000    2.61938000    3.07736000     -0.178504    1.65430200    0.18768500
Ge    8.79227000    1.54165000   16.18278000     -0.068768   -0.53972800    0.27093900
Ge    8.94717000   10.68975000    5.64530000     -0.482300    0.75832800    0.92011400
Ge    7.48363000   10.22694000   15.75434000      0.298157    0.81410500    0.01841200
Ge    9.52602000   14.99107000    6.30791000     -0.005758   -0.97265400   -0.77313100
Ge   15.57142000   10.88472000   15.69695000      0.967642    0.16389000    0.40693700
Ge    7.92111000   21.35232000    4.66592000      0.092483   -1.10341100   -0.17466600
Ge    8.52757000   19.94468000   16.10911000     -0.718301   -0.22844400   -0.75546600
Ge   15.04803000    1.63835000    6.23808000     -0.429436    0.03471400    0.63628700
Ge   13.04747000    2.58211000   15.70754000     -0.325810   -0.95353100    0.76091600
Ge   15.20743000   10.16339000    4.44922000     -0.425017   -0.37172300    0.11733500
Ge   15.76041000    7.37374000   15.10105000     -0.068969   -0.07243900   -0.56918700
Ge   15.96283000   14.13659000    3.48812000     -1.614897    1.46746200    0.82360000
Ge   12.39715000   16.12784000   15.18629000     -0.493037    0.13836900    0.95076300
Ge   13.77845000   19.65804000   18.50436000      1.016045    0.10687300    0.49709500
Ge    9.83135000   21.26559000    0.83644000      0.456397   -0.00266800    0.26502500
Ge   23.36252000    4.47375000    3.82732000     -0.170492   -0.25988900    0.60344800
Ge    0.46983000    2.42105000   15.53999000     -0.150251    0.09723900   -0.52099000
Ge   21.65156000    8.74253000    5.89425000     -1.079641    1.17077300    0.22278100
Ge   21.35994000   10.16497000   14.08193000     -0.582103   -0.40233500   -0.16292300
Ge   22.43324000   16.15817000    5.53486000     -0.277855    0.53546700    1.28528900
Ge   19.48038000   14.25210000   12.70665000      0.392016   -0.64057700   -0.29099900
Ge   19.86196000   20.73138000    6.00066000      0.227381    0.34202600   -0.59366600
Ge   21.18246000   23.47175000   17.70976000     -0.668800   -0.74605300   -1.21675800
Ge    6.01641000    4.42924000    5.97665000      0.276023   -1.14675600    0.31085000
Ge    2.88059000    2.96051000   13.98075000     -0.579286   -0.84101400    1.34916600
Ge    5.28254000   10.94825000    3.91349000     -0.152508   -0.46603100   -1.23335900
Ge    6.94761000    9.40287000   12.41443000      0.173478   -0.12984800    0.09440500
Ge    5.42418000   15.09349000    0.85326000     -0.603985    0.69987900   -2.04213800
Ge    4.69010000   12.94085000   13.56531000     -0.181497   -0.49043200   -0.73955100
Ge    4.77044000   22.51608000    5.59695000     -0.118220   -0.07232900    0.11754000
Ge    5.89239000   21.07603000   14.22419000      0.005198    0.90005300    0.33893900
Ge   15.00510000    6.08767000    3.42989000      0.582917   -0.37727400   -0.16729200
Ge   13.31734000   23.69535000   12.58148000      1.051231    0.25085100   -0.23923000
Ge   10.58266000   10.22823000    0.96173000      0.656872   -0.04826400   -0.13359400
Ge   13.56695000    9.14153000   11.94623000      0.670984   -0.48374600    0.99454000
Ge   10.97423000   13.19646000    1.76578000     -0.800638   -0.01019900    0.87031600
Ge    8.70252000   17.10424000   11.59696000      0.352607   -0.07046800   -0.92512300
Ge   12.63203000   22.04858000    1.59874000      0.152743   -1.05866300   -0.87952700
Ge   11.26202000   23.06016000   13.84417000     -0.729303   -0.85623800    1.46148500
Ge    1.15198000    0.88129000   18.52763000      0.283283   -0.01335700    0.52346900
Ge   12.05934000    5.82408000   12.77811000      0.956772   -0.53136600   -0.99026500
Ge   17.56859000    7.53866000    0.13027000      0.179382   -0.73916000    0.38116400
Ge   12.35127000    6.60154000    8.68618000     -0.973649    0.53171000   -0.95653200
Ge   20.76127000   13.55670000    2.56723000      1.480754    0.62462800   -0.67838100
Ge   15.73221000   17.76851000    8.70443000     -0.336313   -2.54259700    0.72444400
Ge   17.56651000   21.17239000    3.51304000     -0.393646   -0.44664300   -0.36294100
Ge   18.99266000   21.62008000   13.75728000      0.737254    0.50744000   -1.43872100
Ge    0.63479000    1.20809000    3.00542000     -0.402150   -0.37025000    0.38710500
Ge   22.26967000    1.91789000    9.70103000      1.167072    0.74601400   -0.18772000
Ge   23.09150000   10.13238000    2.56639000      0.029827    0.09311700   -0.18884800
Ge   23.57774000    8.86958000   12.67030000     -0.529798   -0.40709800    1.06347600
Ge    2.86013000   13.66312000    2.97634000      0.904904   -1.08065200   -0.33589400
Ge    0.51868000   16.76777000   11.22019000     -0.197325    0.32634000   -0.03122700
Ge    0.18336000   21.82755000    4.59682000      0.351544   -0.59415600    0.14560400
Ge   20.70534000   17.43944000   11.63345000      0.229695    1.61862300    0.48106800
Se    2.72048000   22.87958000    0.20957000      0.281940    1.18421000   -0.25356800
Se    1.33438000    1.60861000    9.62223000     -0.933142    1.15079000    0.29366500
Se    1.33098000    6.55042000    1.36061000     -0.136652    0.81056700    0.71524900
Se   23.18054000    9.88210000   10.66339000      0.049153    0.03478600   -0.70308900
Se   22.19542000   11.92711000    1.13371000     -0.326279    0.62046900    0.12834200
Se    0.25182000   13.67311000    8.70853000      0.275736    1.52371400    0.39399000
Se    1.74775000   19.60803000    4.03380000     -0.282809    0.66723300    0.05322700
Se   22.98501000   19.15104000   11.78119000      0.112622   -1.60504500    0.58184700
Se    6.99952000    2.18048000    2.52332000     -0.194535    0.59617000    0.31568500
Se    5.10328000    3.36442000   13.53437000      1.415526    1.45261100   -0.02696700
Se    9.65552000    4.76226000    5.35319000      0.170970    0.56544600   -0.44664000
Se    8.09375000    9.07804000    9.89261000     -0.606776   -0.14783300   -0.13576100
Se    7.83687000   10.30799000    0.02001000      0.421502   -0.23744600    0.08079100
Se    7.43653000   15.03987000   11.56376000     -0.351401   -0.43589200    0.43891700
Se    7.01992000   20.16661000    2.40113000      0.683665   -0.46096300    0.33858200
Se    9.09782000   20.76828000   12.37814000      0.015719   -0.89477400    0.36132000
Se   12.23834000    0.46574000   19.82769000      0.653882    0.36049200    0.70466900
Se   12.61629000    2.32434000   11.92486000      0.270478    0.07654500   -0.22620300
Se   11.81673000    8.81535000   18.48926000     -2.400057   -0.07033700   -1.11343800
Se   10.32543000   10.11259000    7.87971000     -0.292809    0.20920100   -0.52421100
Se   13.24974000   13.43035000    0.95230000      0.678675   -0.01603000   -0.44035200
Se   12.01262000    8.82137000   10.06199000     -1.087072    0.08429100   -1.20189100
Se   15.15882000   17.08551000    0.91882000     -0.735061   -0.29931700   -1.67532500
Se   11.59498000   19.88334000   11.86708000      0.307960    0.52240300    0.05049300
Se   19.36410000    3.67427000    4.42809000     -0.252051   -0.62222300    0.33344800
Se   13.78422000    3.48408000   13.65014000      0.554348    0.99495400   -0.76532500
Se   16.17892000    5.15467000   15.99708000     -0.630603    0.07542400    0.62492000
Se   19.98154000    3.55235000   13.47681000      0.802174   -0.33444500    0.70728400
Se   19.21808000    9.47178000    1.11369000     -0.134572    0.14103000   -0.83938200
Se   16.20983000   19.25426000    7.14372000      0.696488    1.75770400   -2.00985700
Se   19.29108000   17.60623000    0.81090000      0.339579    0.49046100   -0.19186300
Se   20.23166000   19.06744000    9.66267000     -0.380077    0.23869500    0.06046400
Se    3.28517000    0.34476000    4.01176000      0.676657   -0.20116600    0.24008600
Se    2.92227000    5.90492000   11.75201000     -0.868033   -0.21586500   -0.01342600
Se    5.76873000   11.66306000    0.66600000      0.168343    0.14730400    0.16078700
Se    4.69802000   12.68216000   10.75315000      0.371839    0.57530000   -0.16198800
Se    3.86781000   13.41167000    0.18572000     -0.618561   -0.70018500    0.95783600
Se    3.22598000   17.23653000   10.78034000     -0.124610   -0.40133600    0.24817700
Se    5.96406000   21.74457000   18.86546000     -0.233844    0.17367000    0.83517100
Se    5.09318000   20.26203000   11.99903000      0.158783   -0.24787600   -0.39546000
Se   10.81115000    6.07067000    1.53759000     -0.171629    0.61326600   -0.24066600
Se    8.00806000    2.97539000   11.13808000     -0.693415   -0.79865100   -0.22442700
Se   10.71263000   12.40477000   18.51944000     -0.554101   -0.00702000    0.27679400
Se   10.36376000   11.51330000   11.65050000      0.145767    0.24028100   -0.99403500
Se   11.36552000   15.72656000    2.60926000      0.436255    0.21191300   -0.27706200
Se   12.43334000   15.77572000   12.82839000     -0.507551   -0.12357000   -0.66200100
Se   10.94358000   23.45867000   18.20432000     -1.086943    0.02025200   -1.52233100
Se   10.17818000   23.23066000   11.65527000      1.094379    0.47139000   -1.24849900
Se   12.09713000    4.24797000   17.24168000     -0.169413   -0.49070600    0.01890300
Se   18.02102000    8.47804000    9.26238000     -0.538928   -0.48440600   -0.46367000
Se   16.84643000   10.22182000    2.63796000     -0.196749   -0.42868900    0.40405900
Se   18.24582000   14.02444000   10.35982000      0.027003   -0.75005800    0.70652600
Se   19.19224000   15.48081000    2.26024000      0.004282   -0.61041900   -0.40496000
Se   14.13426000   16.09200000    7.81233000      0.087489   -0.54382900    0.31390900
Se   17.79434000   23.40239000    0.34504000      0.896053   -0.03055000    0.62513400
Se   17.31060000    0.96527000   10.75715000     -1.189762   -0.31990500    0.34648300
Se    0.88965000    2.62570000    0.82062000     -2.654007   -0.62795000    0.13875200
Se   22.29493000    4.35841000   10.21882000     -0.235110   -0.46214400    0.24146700
Se   21.73103000    4.82667000    2.15238000     -0.224149    0.55601000   -0.47962300
Se   20.91299000   11.76666000   12.19952000     -0.270451    0.64302200    0.02330100
Se   22.77379000   14.33456000    4.15666000      0.358354   -0.67136000   -0.49066300
Se   21.72403000   15.41164000   10.94395000     -0.010816   -0.61603200    0.18462600
Se   23.09918000   21.94368000    2.35492000     -0.058802    0.77963800    0.03451200
Se   21.45185000   23.56338000   15.05122000      0.278082    0.85597400    0.93731400
Se    4.25543000    3.86437000    9.45578000      0.008034    0.67831100    1.21109300
Se    4.55786000    5.94963000   18.27720000     -0.238373   -0.43021400    1.47767600
Se    4.30760000   11.89837000    8.41082000      0.033730   -0.19356300   -0.06576600
Se    4.54050000    6.82869000   15.16691000     -1.876455    0.31072000    0.66172800
Se    6.52163000   19.61737000    6.16545000      0.309121    0.45173200   -0.30215700
Se   22.02987000   15.19688000   19.10996000     -0.039428    0.27882800    1.20817900
Se    1.26016000   21.85321000   10.93922000      0.138360    0.10667100    0.17138200
Se    2.35390000   19.95009000   18.18958000      0.139953   -0.73882500   -0.21821800
Se    7.35868000    3.03978000    7.71190000     -0.339525    0.31953500    0.33141600
Se    5.54060000    4.20443000   19.83323000      0.531270    0.51813100   -1.48251400
Se    6.37251000    9.84715000    5.87785000      0.488943    0.52826100    0.69946600
Se    4.18904000    9.23045000   19.29847000     -0.504586    1.06402700   -0.09900800
Se    6.77930000   18.37488000    9.47889000      0.672735   -0.54098100   -0.13387800
Se    6.03872000   15.27334000   18.31555000      0.333953    0.76121400    0.69094800
Se    9.47005000   20.99151000    8.98475000      0.255405   -0.73301600   -0.43044900
Se    9.17315000    3.20881000    0.41875000     -0.033100   -0.28384600    0.02856400
Se   14.40548000    2.73640000    8.63248000      0.496469   -0.49721000   -0.17403400
Se    8.37258000    5.30312000   17.70836000      0.359196   -0.18409100    0.10700900
Se   10.21788000    5.11840000    8.52971000      0.300033    0.99400500    0.35788000
Se   18.08678000   11.60519000   16.16674000      0.197625   -0.52168600    0.64702400
Se   13.28597000   19.51323000    8.40900000     -0.159461   -0.58642600   -1.68499100
Se   14.92733000   15.72119000   17.95466000      0.565861    0.59235700   -0.29523100
Se   15.66236000   22.81967000    7.39670000     -0.035585    1.30287300   -0.09950800
Se   19.02822000    3.24210000   16.86506000     -0.148173   -0.64150900   -0.36383000
Se   17.74063000    4.01271000   11.08782000     -0.380426    0.00571700    0.31690200
Se   23.22916000    3.53482000   17.55259000     -0.307968    0.17740000   -0.32258200
Se   19.11945000    9.23276000   13.22217000     -0.557587   -0.85103600    0.00806700
Se   20.01257000   10.05445000   16.81976000     -0.400892    0.43267000   -0.33783500
Se   15.75578000   18.66607000   10.95143000      0.733546    0.21062900    0.19538200
Se   18.88330000   14.57616000   17.66403000      0.329582   -0.57722700    0.46206500
Se   18.51268000   23.04484000    7.95620000      0.113817   -0.25486100   -0.79448500
Se   18.01530000   19.70802000    1.32372000     -0.012615    1.06480900   -0.31366800
Se    4.55296000   22.13403000    9.16350000      0.611344   -0.15448300    0.05192600
Se    3.03526000    3.34653000    0.78612000      2.404481   -0.42907900   -0.36291400
Se    6.89603000    6.93093000   10.08834000      0.339594   -0.13396000    0.31107600
Se    4.92297000    7.45070000    0.74151000      0.467221   -0.74161000   -0.09270800
Se    5.73469000   16.20788000    6.90546000     -0.541204   -0.63155900   -0.57542300
Se    6.98488000   11.99310000   17.44395000     -0.420738   -0.29524900   -0.14986100
Se    2.74245000   19.21624000    8.46600000     -0.755147   -0.00487300   -0.24302300
Se   22.27342000   19.58985000    0.85057000      0.100353   -0.26869400   -0.52107200
Se    9.06314000   23.40307000    7.08786000     -0.140688    0.79169100    0.58519300
Se   12.12161000    4.30838000    2.29725000      0.186319   -0.60800700    0.15015600
Se   11.12609000    2.31036000    9.13019000     -0.012183   -0.00324600    1.01750000
Se    8.29831000    6.55258000    0.51613000      0.263867    0.25972500    0.19569800
Se   10.97486000   13.91516000    7.92652000      0.441771   -0.27413500   -0.07520400
Se    8.99528000   13.60424000    0.21974000      0.567957    0.01645900   -0.07600900
Se   13.67877000   22.92897000   10.26209000     -0.883661   -0.47570700    0.38076900
Se   14.92322000   12.70939000   17.12354000     -0.337462    0.48595600   -0.10805300
Se   18.10000000    3.24736000    7.53256000     -1.068919   -0.38874600   -1.14918300
Se   17.28166000    4.85486000    1.79171000      0.384523   -0.37957700   -0.50178000
Se   15.47234000    7.99322000    8.97521000     -0.292036   -0.01342400   -0.03089800
Se   15.63145000    8.96195000   17.25720000      0.001502   -0.82399200    0.47823400
Se   15.04696000   13.86400000    8.32944000     -0.827873    0.60139600    0.82925100
Se   16.06583000   12.72507000   19.50807000     -0.224259    0.17234000    0.15413000
Se   13.89832000   19.98450000    3.39600000      0.686698    0.06682500   -0.98756400
Se   19.83078000   21.37585000   17.69497000      0.094884    0.14399500    0.85576000
Se   21.60175000    1.06913000    7.42647000      0.519719   -0.06921500    0.10945100
Se    0.48116000   23.64053000   15.90829000     -0.165182    0.37997100    0.15843600
Se   20.93634000    7.61998000    9.22085000      0.608211   -1.06028800    0.12098500
Se   22.70364000    7.91814000   16.74181000      0.494481    0.26454100    0.57049900
Se    0.04457000   11.24497000    7.85710000      0.009932   -1.48397600   -0.29233300
Se   22.17021000    8.27937000   19.08236000      0.218603    0.07854900   -0.25515800
Se   21.39446000   17.30795000    8.03537000     -0.081885    0.64609200   -0.79707600
Se   18.91273000   17.66194000   18.32129000      0.068764    0.24752000    0.00468000
Se    1.02690000   23.18419000    8.95918000      0.159042   -1.13657400   -0.56239300
Se    3.44607000    0.65464000   12.84881000     -0.065982    0.02839900   -0.10187100
Se    2.39856000    8.02601000    8.41011000      0.522428    0.71236300   -0.35261900
Se    2.38020000    8.46053000   17.90046000     -0.168591   -0.19373600   -0.01307100
Se    0.95320000   16.10790000    8.66517000     -0.148912   -0.00053200    0.29353500
Se    1.03522000   13.15819000   17.99557000     -0.086845   -0.59025700   -0.15619300
Se    3.53060000   19.70693000    5.69263000     -0.213968   -0.16937000   -0.12388500
Se   23.22539000   19.45116000   16.63669000     -0.730157   -0.56285700    0.14674700
Se    6.87263000   23.49922000    4.78666000     -0.385757    0.37620100   -0.54216300
Se    6.28692000    0.90788000   17.79001000     -0.326744    0.40714600    0.13726800
Se   11.46380000    6.37105000    4.67171000     -0.689856   -0.97689200    1.08906900
Se    6.58380000    7.86953000   15.74200000      0.501140   -0.19401100   -0.43197400
Se    7.62267000   15.07716000    7.86126000     -0.284717   -0.13453100   -0.05797700
Se    8.80654000   18.62990000   13.61991000     -0.547795    0.54553400   -0.34009400
Se    7.65893000   16.51090000    3.10903000     -0.057420   -0.47234500   -0.00787900
Se    9.49196000   16.25040000   15.21145000      0.006197   -0.18265100   -0.65242700
Se   14.33169000   21.65430000    5.02757000      0.159288    0.11498300    0.96381300
Se   14.17477000   22.81423000   16.00289000     -0.465420    0.03583100   -0.36328100
Se   13.34220000    7.94361000    3.96061000      0.968111    0.96296600    0.39112500
Se    9.08881000    7.92277000   13.69667000      0.759956    0.17859400   -1.86144900
Se   13.61465000   12.24651000    4.77126000      1.300622    0.44583900   -0.38212600
Se   14.64996000   15.38899000   14.60378000      0.100584   -0.88120000   -0.77278900
Se   11.87957000   19.36921000    4.19849000     -0.628516   -1.35228200    0.59514200
Se   15.95084000   20.34401000   17.58167000     -0.016965   -0.12785400   -0.08963200
Se   18.01867000    1.58866000    4.36522000     -0.216298    0.78773900   -0.11251700
Se   19.45163000    1.46978000   18.33207000     -0.219268   -0.06477100    0.49850900
Se   19.53965000    8.26614000    4.62360000     -0.690978   -0.09274600    1.06836200
Se   19.78176000    5.50053000   17.24901000      0.466051    0.59181100   -0.25858100
Se   19.81631000   12.11182000    4.05055000     -0.393273   -1.39120200    1.26148600
Se   16.88935000   12.56089000   12.09542000     -0.080326    0.82496300    0.23202200
Se   19.49757000   18.52243000    4.63150000     -0.457353   -0.33636700    0.20230600
Se   20.91427000   20.55610000   14.47511000      0.766726   -0.56359900    0.36189500
Se    5.59399000    6.63209000    6.56186000     -0.367799    0.48616300    0.47267700
Se    3.34134000    3.49379000   16.75298000     -0.561243    0.21060800   -0.60097400
Se    3.21453000    9.37120000    3.33322000      0.531202    0.17967400    0.20288800
Se    4.82104000   10.40499000   14.44026000      0.264494    0.99208800    0.35304000
Se    4.55104000   14.05673000    5.34565000      0.689227    0.45571100    0.34629700
Se    1.57408000   17.09808000   18.76687000     -1.113833   -0.81972700    0.16542800
Se    1.61922000    0.02297000    5.62158000     -0.419006   -0.50787800    0.25098400
Se    3.10244000   20.82692000   13.12027000      0.106514   -0.37999300    0.76269800
Se   12.57302000    0.56718000    6.31855000      0.194817   -0.71808900    0.24102400
Se    6.88818000    4.79461000   15.90360000      0.819820   -0.51652200   -0.23612900
Se   11.87059000   11.72169000    7.01263000     -0.793483    0.56590600    0.41142800
Se   11.01485000   14.59814000   17.30824000      1.271216    0.11509900    0.77203900
Se   10.30730000   16.92349000    9.38808000     -0.224548    1.03624900    0.65678700
Se   10.98592000   20.22539000   18.53952000      0.128470   -0.30028500    0.32535600
Se   10.63051000   21.85998000    3.77976000     -0.906272    0.13800400    0.12551800
Se    8.56338000   20.97107000   18.38041000     -0.554644   -0.13910900    1.29740300
Se   15.52767000    4.89676000    5.76490000     -0.556166    0.42718000   -0.39183000
Se   13.93417000    6.13175000    0.27590000      0.084389    0.24129200   -0.93558800
Se   16.37925000   10.38164000    6.55110000     -0.288219    0.94712100    0.13058100
Se   18.14063000    6.82793000   13.40666000      0.626399    1.22526000    0.03784200
Se   17.32700000   14.24720000    5.55206000     -0.117709   -0.23141100   -0.58428400
Se   12.59588000   18.39513000   15.69672000      0.754132    0.11401800    0.21237200
Se   15.36550000   23.52095000    4.03962000      0.338526   -0.56464200   -0.96542800
Se   17.63068000    3.54214000   13.52463000     -0.254493    0.35237600   -0.59475900
Se   22.25235000    4.93491000    6.43913000     -1.105127   -0.07931800   -0.65920100
Se   22.71196000    5.62704000   14.03339000      0.455441   -0.79255500    0.32043100
Se   17.45843000   10.51138000   10.76838000      0.694362   -0.04715600   -0.28119100
Se   21.94957000   14.40994000   15.31848000      0.214244   -0.16001900    0.21443000
Se   17.78023000   16.12050000    8.22310000     -0.769442    1.46025500   -0.20249500
Se   22.06231000   16.98029000   15.47780000      0.785683   -0.62448300    0.79037900
Se   20.88107000   22.72295000    8.44373000      0.254337    0.07754500    0.13212300
Se   22.94005000   23.11819000   19.28497000     -0.051413    0.12388300    0.06915900
Se    4.27765000    2.80726000    7.47743000      0.607049   -0.46813500   -1.19436500
Se    5.19246000    0.33712000   14.63648000     -0.673099   -0.54708400   -0.00068400
Se    4.11899000    5.30287000    3.24489000     -0.635789   -0.52279200    0.71292400
Se    4.62334000    8.49762000   11.16727000     -0.195438    0.52892100   -0.06829000
Se    1.73516000   11.17784000    3.57163000     -0.823886    0.65379600    0.01098700
Se    4.75556000   14.10827000   15.69657000     -0.785475    0.12347800   -0.18049700
Se    4.17794000   17.01556000    1.22029000      0.020129    0.79637700    0.70739900
Se    3.46093000   16.83607000   13.05413000     -0.600194   -0.26921700    0.83871200
Se   10.60012000    0.54658000    2.10161000      0.154955   -0.72369000   -0.28124600
Se   10.87469000    1.70976000   14.66754000      0.237328    0.31321000    0.40828700
Se    9.68572000    9.45334000    3.83914000      1.243186   -0.49247900   -0.78624100
Se    9.17858000    8.65947000   16.69100000     -0.177558    0.44601600    0.53534400
Se    8.86669000   13.04491000    4.49948000      0.110894    0.09242400    1.34311500
Se   12.45529000   11.20780000   12.73045000      0.488811    0.44624400   -0.05022800
Se    9.23095000   18.95436000    1.97020000     -0.807324    0.70124100   -0.62320800
Se    9.10160000   22.24184000   15.66284000      0.276886    1.07213000   -0.77650800
Se   19.06291000    4.94946000    8.72880000      0.168580    0.50649800    0.49311600
Se   14.85486000    1.11292000   17.07255000     -0.121216   -0.22391900   -0.30503000
Se   17.05222000    7.71341000    3.62205000     -0.883221    0.41249400   -0.48266600
Se   12.89484000    7.44038000   14.26100000      0.354087    0.79591300    0.27012100
Se   17.25055000   12.82004000    2.10089000      1.023563   -1.43800700   -1.38433000
Se   19.27029000   18.37722000   14.13862000     -0.061383    0.25351100   -0.34834000
Se   15.59308000   17.08120000    3.11812000      0.011209   -0.52487100    1.57379000
Se   17.15092000   20.35932000   13.92428000     -1.573684   -0.88190000    0.46636700
Se   22.59647000    2.20727000    4.53188000      0.335378   -0.26366200   -0.54146200
Se   22.07320000    0.74731000   11.79285000      0.500360   -0.26817900    0.07803400
Se    0.11913000    8.05198000    5.57976000     -0.216658   -1.83582200   -1.06640600
Se   21.57993000    6.99223000   12.55430000      0.718552    0.87685100    0.38369100
Se    0.55950000   17.85230000    5.99949000     -0.287845   -0.45220300    0.04668800
Se    1.15228000   11.63759000   14.58171000     -0.253255    0.12061500   -0.45549000
Se   22.35794000   20.49276000    5.89408000      0.202790    0.28207200    0.32941100
Se   19.91298000   21.19071000   11.25455000     -0.098060    0.30889800    0.01663500
Se    2.47043000    4.19358000    6.40893000     -0.775748    0.40045000    1.43960000
Se    1.48980000    3.86558000   12.34852000     -0.201150    0.90291100   -0.69501500
Se   21.97118000   11.02639000    4.67939000     -0.154273    0.16552900    0.36898100
Se    1.86579000    7.57642000   13.29466000     -0.057589    0.05196700    0.01108300
Se    1.26019000   15.17238000    2.13490000     -0.966361    0.28425600   -0.25229100
Se    0.94843000   16.27183000   14.16300000      0.873991    0.37564300   -0.85396400
Se    3.21303000   19.85296000    2.18178000     -0.297085    0.48435200   -0.63190200
Se    6.20979000   17.74290000   18.29589000      0.837714   -0.87249700   -0.77573500
Se   11.31989000    2.55889000    5.83134000     -0.437678    0.40120500   -0.91512100
Se    8.17096000    2.33983000   13.45044000     -0.137434   -0.47391900   -0.24567000
Se    6.29234000    8.60075000    3.00810000     -0.383707   -0.05189000   -0.39579400
Se    9.23184000   10.72034000   13.47233000     -1.209084   -0.36661700    1.12381700
Se    7.03044000   14.24241000    2.23728000      1.086950   -0.24266700    0.85080900
Se   10.05649000   15.21731000   13.00971000     -0.252457    0.19818700    0.29935300
Se    6.48665000   23.33153000    9.91967000     -0.247769    0.10283400   -0.12806600
Se    5.74524000   20.14642000   16.36703000      0.256640   -0.41666600   -0.51513500
Se   13.18966000    0.31364000    2.74661000      0.653333    1.47875000    1.39372300
Se    9.67533000    5.36422000   13.22207000     -0.660153   -0.21250700    0.69533800
Se   13.60651000    9.67276000    1.19377000      0.079344    0.72446600    0.12721800
Se   15.23504000   11.03523000   13.34157000     -0.095633   -0.17779500    0.34801800
Se   10.15821000   17.10751000    5.55073000      0.307993   -0.03724000    0.18537500
Se   13.53433000   18.38522000   11.53482000     -0.151233   -1.22238800    1.05636100
Se   14.78246000   21.24650000    0.58394000     -0.189200    0.37039200   -0.71780700
Se   15.18593000   22.29790000   13.89570000      0.226823    0.37652000   -0.01756600
Se   18.90811000    5.20999000   19.78557000     -0.635741    0.70833800    0.71347300
Se   14.15958000    6.13191000   10.03635000      1.694648   -0.56799200    0.85664600
Se   20.44721000    8.09666000    2.58035000      1.133574   -0.61646300   -1.38333400
Se    2.13011000   12.64490000   12.51408000      0.498538   -0.20509700    0.83958100
Se   21.57860000   17.70306000    3.95522000     -0.189195    0.41931500   -0.95875900
Se   17.98683000   16.19308000   13.99861000     -0.218510   -0.10115600   -0.29605500
Se   19.80375000   22.01485000    3.51150000      0.473660    0.48334300    0.59565000
Se   19.05948000    0.21238000   14.55846000      0.094131    0.13055800   -0.25046100
