384
23.69824000 23.69824000 19.89960000
Ge    5.11754000    5.90970000   12.97426000      0.955281   -0.11805100   -0.49563200
Ge    6.52369000    4.51808000    3.58244000      0.565633   -0.46155400   -1.00824300
Ge    1.81808000   12.82152000    7.12631000      0.727815    0.34753000   -0.32168500
Ge    9.52210000   13.75773000   15.78283000     -0.971059   -0.62209500   -0.65732800
Ge    5.62094000   15.29991000    9.98790000     -0.582681   -0.25074700    0.08378400
Ge    8.83027000   18.48507000   19.12887000      0.167000   -0.18370500    0.43077200
Ge    7.98477000   23.33653000   12.39316000     -1.991206    0.36314700    0.85789500
Ge    4.79977000    0.95014000    0.59007000      0.012395    0.23891200   -0.63397100
Ge    8.95991000    5.22339000   10.65190000     -0.007271    0.78823900    0.05602300
Ge   11.23333000    6.15960000   18.85956000      0.170463    0.63757300    0.22911600
Ge    9.81017000    7.76358000   11.00202000      0.987078   -0.28172300    1.02477100
Ge   13.26536000   11.45063000   19.03477000     -0.079329    0.38655500    0.44938200
Ge   11.21450000   19.39661000    9.62047000     -0.488495   -0.14218200    0.28123000
Ge   12.80475000   15.80385000    0.06815000      0.501566    0.00858600    0.59785700
Ge   11.01362000   23.55296000    9.07462000      0.597711   -0.00993900   -0.43941100
Ge   16.20696000   22.80011000   18.65072000     -0.883071   -0.68357500   -0.07060900
Ge   19.91126000    5.23068000   11.65233000     -0.507918    0.32328900   -0.15961600
Ge   19.80688000    8.06200000   18.49308000     -0.524471    0.52503500    0.12913300
Ge   19.54625000   11.78539000    9.95180000     -0.037508   -0.35128600    0.68106800
Ge   18.42786000   12.29568000   18.80260000      0.432426   -0.00227100   -0.89087000
Ge   15.34629000   20.77830000    9.01058000      0.272815    0.64336900    0.62339400
Ge   17.43643000   15.44187000   19.78983000     -0.494472    0.19483800   -0.32206800
Ge   19.76384000    1.36333000   12.03236000     -0.705373   -0.03418500    0.04444400
Ge   19.67307000    3.27129000    2.12697000      0.100254   -0.08281600   -0.57217900
Ge   23.25688000    5.84629000    8.36079000      0.164652    0.77367900    0.48136300
Ge    2.24214000    3.51013000    4.18743000      0.204111   -0.14511800   -2.09606600
Ge    1.75054000   10.20149000    9.68129000      0.152236   -0.00313900   -0.12422100
Ge    1.35296000    8.72921000    0.31894000      0.237325    0.46154400   -0.51146000
Ge   20.02510000   15.46457000    8.69521000      0.802793   -1.04348600    0.18220200
Ge    0.81204000   14.81312000   19.64095000     -0.245785    1.36261100   -0.69613200
Ge   19.02699000    1.54115000    9.03265000      0.480359    0.32691800    0.68894700
Ge    0.93353000   20.82428000    0.50588000      0.175613   -0.54534900    0.14680100
Ge    5.03317000    9.22751000    8.48215000     -0.892831   -0.26337600    0.55886200
Ge    1.30611000    4.97794000   19.53884000      0.478590   -0.33107200   -1.04852200
Ge    1.59171000    9.63875000    6.37889000      1.617233    1.02187900    0.72665100
Ge    4.35805000   12.03991000   16.96798000      0.284026   -0.89564800    0.19223000
Ge    5.71113000   17.99801000    3.91377000      0.257704    0.07125100   -0.50126000
Ge   22.74888000   17.53781000   18.34305000      1.027155    1.23336700   -0.35605000
Ge    4.70753000   19.49560000    9.68946000      1.023677    0.99525700    0.62171100
Ge    3.64399000   21.98767000   17.76973000      0.338872    0.78624400   -0.04645500
Ge    9.45285000    2.17596000    7.43123000      1.176835   -1.05858100   -0.95758800
Ge    7.24737000    7.99792000   18.24618000      0.257128   -0.28256500    0.98621000
Ge    6.50859000   12.65577000    6.54637000     -0.522760    0.17495000   -0.08158600
Ge    8.47438000    8.72212000    1.85157000     -0.788282   -0.56377700   -0.59123700
Ge    8.70873000   19.00926000    7.55691000     -0.490302   -0.44424800    0.26861300
Ge    4.67950000   19.32247000   19.38831000     -0.667346    0.25695300    0.83460400
Ge   11.00764000   21.98509000    6.42331000      0.764661    0.23968600   -0.15462500
Ge    9.87707000    3.04577000   18.01468000      0.211869    0.57940700    0.22409100
Ge   13.81332000    6.55675000    6.30320000     -0.424723    0.22487500   -0.26380100
Ge   14.00910000    8.33040000   19.11517000      0.172239   -0.49323100    1.08953200
Ge   15.55747000   12.87453000    6.26991000      0.266781   -1.46557200    0.09991000
Ge   16.92324000   14.66977000   15.66252000      0.097869   -0.79558100    0.88498300
Ge   12.93889000   16.77607000    4.45960000     -0.544510    0.00306900   -0.34284000
Ge   15.42920000   17.36255000   15.89031000     -0.535421    0.49254600    0.46794500
Ge   15.31980000    0.72100000    9.35723000      0.463456    0.49146900   -0.65443300
Ge   15.83431000    5.19787000   18.54572000      0.495481   -0.06589600    0.01479900
Ge   19.70928000    6.45474000    6.95506000      1.034091    0.32147200    0.08660400
Ge   22.13243000    5.64981000   16.54334000      0.074372   -0.89124900   -0.78728900
Ge   20.16090000    9.49125000    8.00953000     -0.244601    0.51040500   -0.16467000
Ge   21.63318000   13.28974000   17.73182000      0.177406    0.07982600   -0.87900300
Ge   18.84980000   18.38799000    7.24424000      0.203833   -0.40648900    0.82423100
Ge   20.39354000   18.75897000   16.33476000      0.555948    0.91166400    0.73458500
Ge   19.88829000    0.33563000    5.23253000     -0.083395   -0.31729000    0.03139100
Ge   20.00752000   21.49665000    0.50260000     -0.447960   -0.42889000   -0.38428100
Ge    5.30677000    2.23584000   11.22105000      0.671936   -0.57202300   -0.47555900
Ge    5.63571000    3.19893000   17.24409000     -0.068238   -0.66437000    1.31394900
Ge    3.21332000    6.44654000    5.64479000      0.877480    0.79347900   -0.67575200
Ge    3.02565000   10.12174000   12.87604000     -0.617790   -0.40228500   -1.08299100
Ge    2.76932000   17.26741000    6.80800000      0.454825   -0.31967400    0.13509300
Ge    1.41293000   14.02551000   15.39659000     -0.110808    0.26707500    0.32699600
Ge   22.63716000   21.20779000   10.46203000     -0.616234   -0.03728200   -0.36590500
Ge    2.64175000   22.92423000   14.74105000      0.831081   -0.53465100    0.45205200
Ge    9.86837000    2.60378000    3.07852000     -0.193174    1.63677100    0.12085200
Ge    8.89964000    1.44754000   16.19286000     -0.190035   -0.56528200    0.35084300
Ge    8.93310000   10.67470000    5.62712000     -0.600778    0.95938700    1.45158500
Ge    7.52925000   10.19583000   15.79667000      0.062630    1.29112300   -0.36814000
Ge    9.45304000   15.03419000    6.28950000      0.435025   -1.33812300   -0.33746600
Ge   15.60678000   10.83729000   15.68781000      0.911248    0.31585500    0.72626600
Ge    7.97413000   21.33949000    4.73815000     -0.071385   -0.85237500   -0.39474300
Ge    8.47187000   19.92749000   16.12829000     -0.586624   -0.36927600   -0.74980800
Ge   14.99888000    1.61286000    6.27780000     -0.260137    0.02552100    0.27671700
Ge   13.02061000    2.60134000   15.74030000      0.170716   -0.73758500    0.68246000
Ge   15.11330000   10.20303000    4.46914000      0.291503   -0.49851500    0.03739800
Ge   15.73923000    7.38514000   15.08070000      0.072481   -0.40792900   -0.53648900
Ge   15.98690000   14.15683000    3.49190000     -1.906813    1.59543600    0.66534800
Ge   12.38458000   16.14386000   15.17284000     -0.209787    0.28509200    0.80548600
Ge   13.75781000   19.67932000   18.48074000      1.106906    0.21400800    0.41204500
Ge    9.84574000   21.32922000    0.85314000      0.425966   -0.28124900    0.17757400
Ge   23.37386000    4.41166000    3.84877000     -0.435272    0.36957700    0.26338400
Ge    0.49631000    2.45018000   15.42524000     -0.323530   -0.13797400   -0.23113400
Ge   21.66598000    8.73017000    5.91108000     -1.423173    1.21396400   -0.03429900
Ge   21.37337000   10.20941000   14.10115000     -0.612242   -0.29202500   -0.24269700
Ge   22.40980000   16.24673000    5.46829000      0.377658   -1.66133000    2.04096400
Ge   19.48862000   14.24158000   12.71369000      0.363309   -0.75091900   -0.32176400
Ge   19.87571000   20.73395000    6.02715000      0.242913    0.44103700   -0.65225200
Ge   21.18631000   23.46899000   17.66388000     -0.424557   -0.63389300   -0.68024900
Ge    6.02829000    4.38488000    5.99599000     -0.006336   -0.71050100    0.60309100
Ge    2.92488000    2.91167000   13.98485000     -2.399170   -0.42922600    0.75410500
Ge    5.27353000   10.97956000    3.88864000     -0.045895   -0.53918300   -1.08785300
Ge    6.95766000    9.39400000   12.42416000      0.162268   -0.09799200    0.22755000
Ge    5.37390000   15.09659000    0.86483000     -0.371486    0.24815500   -2.05035700
Ge    4.60657000   12.90403000   13.58771000      0.093378    0.16564400   -0.59067600
Ge    4.77832000   22.56037000    5.61364000     -0.293004   -0.16216900    0.05126900
Ge    5.88623000   21.05120000   14.28352000      0.135374    1.19675600   -0.18261900
Ge   15.04889000    6.07318000    3.45613000      0.184945   -0.27357100   -0.20518900
Ge   13.33139000    0.00606000   12.55131000      0.545920    0.07464900    0.17494700
Ge   10.57530000   10.23899000    0.99218000      0.576871   -0.16634700   -0.23084100
Ge   13.56649000    9.13948000   11.89173000      0.636748   -0.36712700    1.00730700
Ge   10.97187000   13.17946000    1.76908000     -0.293723   -0.08037700    0.77694300
Ge    8.65729000   17.11682000   11.62445000      0.507615    0.31714500   -0.96943300
Ge   12.66371000   21.98843000    1.61052000      0.083317   -0.30629100   -0.54864100
Ge   11.26593000   23.02367000   13.90771000     -0.719963   -0.32094200    0.67858500
Ge    1.12206000    0.86636000   18.46229000      0.179659   -0.17853100    0.63633100
Ge   12.05936000    5.80900000   12.80445000      1.087830   -0.83423900   -1.31780900
Ge   17.51982000    7.45756000    0.13271000      0.411472   -0.66357500    0.31045900
Ge   12.30682000    6.62447000    8.67917000     -0.504760    0.43520900   -0.48752300
Ge   20.80721000   13.52168000    2.54818000      1.107236    1.32538500   -0.69057200
Ge   15.75174000   17.74413000    8.75626000     -0.238568   -2.34333900   -0.22299600
Ge   17.55332000   21.17280000    3.56552000      0.109300   -0.33543000   -0.44029200
Ge   18.94302000   21.60366000   13.71826000      1.987519    0.53377700   -1.14111800
Ge    0.65569000    1.15562000    3.05089000     -0.371877   -0.12638200    0.33901800
Ge   22.31482000    1.92752000    9.71988000      1.251237    0.40790800   -0.18558800
Ge   23.13619000   10.22031000    2.50868000     -0.007379   -0.19171100   -0.08174600
Ge   23.54312000    8.88702000   12.71106000     -0.278082   -0.33005900    0.99472500
Ge    2.83990000   13.69384000    2.98853000      1.345172   -1.36108700   -0.18542400
Ge    0.52399000   16.76884000   11.25402000     -0.133727    0.29475100   -0.16180400
Ge    0.15502000   21.81710000    4.57967000      0.450438   -0.49768400    0.63357800
Ge   20.71050000   17.41091000   11.64142000     -0.042749    2.39126700    0.52419700
Se    2.76330000   22.85283000    0.19468000      0.337956    1.12938600   -0.36073700
Se    1.38393000    1.57993000    9.62038000     -0.827765    1.66947700    0.47292300
Se    1.36337000    6.56307000    1.34636000     -0.138748    0.43364900    1.38644200
Se   23.19707000    9.85851000   10.67667000     -0.051025    0.08471600   -0.79503800
Se   22.16022000   11.98555000    1.11165000     -0.146886    0.51985500   -0.06706800
Se    0.21862000   13.70473000    8.70042000      0.401746    1.52001000    0.33794900
Se    1.69759000   19.63667000    4.11729000      0.089279    0.52344100   -0.40358600
Se   22.99114000   19.16164000   11.71956000      0.102489   -1.65582700    0.63713600
Se    7.00482000    2.11392000    2.52821000     -0.239191    0.63454500    0.41083400
Se    5.06959000    3.36866000   13.56173000      2.428539    1.55277700   -0.30794600
Se    9.67321000    4.74332000    5.35349000      0.038011    0.54744400   -0.42440400
Se    8.11657000    9.06697000    9.92379000     -0.819996    0.42949100   -0.47087700
Se    7.81835000   10.24349000    0.00108000      0.392989    0.00436100    0.16791300
Se    7.43461000   15.09185000   11.59247000     -0.628587   -0.72772900    0.30386600
Se    6.97343000   20.19927000    2.43143000      0.982300   -0.63034900    0.35972300
Se    9.05327000   20.72295000   12.40989000      0.131796   -0.49026300    0.05421000
Se   12.22487000    0.47445000   19.82255000      0.422744    0.28866900    0.57936300
Se   12.65847000    2.32840000   11.95708000     -0.130697   -0.31144000   -0.94624700
Se   11.79671000    8.81883000   18.51170000     -1.459641   -0.18762800   -0.74683500
Se   10.20756000   10.13628000    7.94524000     -0.016679    0.37674800   -0.85320100
Se   13.28769000   13.39255000    0.90907000      0.289001    0.27030800   -0.35560600
Se   11.99795000    8.84531000   10.04973000     -1.269439   -0.07995100   -1.15782300
Se   15.14241000   17.06345000    0.89167000     -0.745383   -0.21584500   -1.56834100
Se   11.56473000   19.94468000   11.91327000      0.414516    0.49358700    0.22159300
Se   19.24425000    3.69203000    4.43102000     -0.181759   -0.26102400    0.90567800
Se   13.74473000    3.49006000   13.60732000      0.924912    1.34657900    0.25870800
Se   16.13548000    5.12637000   16.01070000     -0.641809    0.33634400    0.58466400
Se   19.96965000    3.52966000   13.45715000      0.954009   -0.23945400    0.85804400
Se   19.26934000    9.47358000    1.12281000     -0.402158    0.24225200   -1.01854400
Se   16.20286000   19.24343000    7.14184000      0.569457    1.27378000   -1.76345700
Se   19.26561000   17.61417000    0.79867000      0.500519    0.51682600   -0.02749900
Se   20.25509000   19.08580000    9.65402000     -0.456942    0.16156900    0.00700300
Se    3.32306000    0.30628000    3.96354000      0.325934   -0.29079200    0.68885400
Se    2.90965000    5.98431000   11.67887000     -0.870357   -0.44973300    0.05010300
Se    5.76694000   11.67742000    0.64609000      0.149947    0.11211800    0.15353900
Se    4.69090000   12.63887000   10.73855000      0.448667    0.74225300    0.05424000
Se    3.83458000   13.38089000    0.15243000     -0.343902   -0.60449800    1.04415900
Se    3.25393000   17.22231000   10.78736000     -0.262851   -0.34198400    0.24248800
Se    6.01216000   21.74219000   18.89259000     -0.587482    0.12925800    0.77215300
Se    5.10330000   20.26805000   12.05290000      0.201531   -0.24926800   -0.68326800
Se   10.80072000    6.02790000    1.46149000     -0.259173    0.54377500    0.33625000
Se    8.00472000    2.92852000   11.07307000     -0.658483   -0.65605700    0.27299400
Se   10.70700000   12.38622000   18.54993000     -0.431141   -0.13100600   -0.01693600
Se   10.36559000   11.54890000   11.62922000     -0.547581    0.19384400   -0.92534400
Se   11.41626000   15.73660000    2.60631000      0.390733    0.17087300   -0.47449300
Se   12.40313000   15.77077000   12.79866000     -0.187225   -0.03116400   -0.44881700
Se   10.91148000   23.46494000   18.18325000     -0.894797    0.05251000   -1.21832000
Se   10.15471000   23.23471000   11.60192000      1.330207    0.39154800   -0.56085600
Se   12.08816000    4.26358000   17.28976000     -0.100114   -0.52447300   -0.08324300
Se   17.99372000    8.51130000    9.29213000     -0.483605   -0.72182000   -0.66880400
Se   16.89127000   10.24160000    2.65124000     -0.576665   -0.42568600    0.70547100
Se   18.29093000   14.00880000   10.35506000     -0.071666   -0.72064200    0.63466200
Se   19.21237000   15.54822000    2.28021000      0.137467   -0.82120000   -0.42732900
Se   14.14021000   16.13170000    7.81794000      0.119793   -0.65542500    0.41706100
Se   17.79960000   23.43154000    0.30748000      0.845885   -0.05294600    0.64964600
Se   17.27083000    0.95086000   10.75213000     -0.948130   -0.13919500    0.13036700
Se    0.92268000    2.60369000    0.79364000     -3.022608   -0.90784600    0.36512900
Se   22.25329000    4.37492000   10.15915000     -0.235331   -0.44963600    0.53872100
Se   21.72797000    4.80885000    2.12637000      0.135308    0.53735700   -0.24598200
Se   20.96886000   11.83454000   12.22756000     -0.339719    0.44651100   -0.04914900
Se   22.77725000   14.28116000    4.12678000      0.385327    0.09599600    0.06545200
Se   21.69516000   15.41776000   11.02981000      0.330820   -1.11414000   -0.06522100
Se   23.06709000   21.90252000    2.36435000     -0.178166    0.68170100   -0.20873300
Se   21.45867000   23.55628000   15.05065000      0.328492    0.71041300    0.80294700
Se    4.25045000    3.81078000    9.44386000     -0.085264    0.86561300    1.44514500
Se    4.56987000    5.92603000   18.28559000     -0.258858   -0.37638300    1.56209200
Se    4.34999000   11.87907000    8.44686000     -0.083228   -0.19735900   -0.30413200
Se    4.51127000    6.78658000   15.15068000     -1.315837    0.38980500    0.38554300
Se    6.60190000   19.60775000    6.17759000      0.052070    0.33911800   -0.36903700
Se   22.03340000   15.22212000   19.14763000     -0.115509    0.05871100    1.12254300
Se    1.24409000   21.83961000   10.96419000      0.232130    0.28737900   -0.08477400
Se    2.38367000   19.96259000   18.19874000      0.014511   -1.00895400   -0.31652100
Se    7.34820000    3.04271000    7.72113000     -0.665267    0.37467000    0.47588300
Se    5.53313000    4.16336000   19.84146000      0.634973    0.66996900   -1.54232400
Se    6.35859000    9.84060000    5.89347000      0.470405    0.67867400    0.44155600
Se    4.17271000    9.28878000   19.28761000     -0.625702    0.71696800   -0.23004300
Se    6.81829000   18.38080000    9.44232000      0.433667   -0.48431000    0.08969200
Se    6.04027000   15.26520000   18.26926000      0.315954    0.89836700    0.92436500
Se    9.44933000   20.99634000    9.01821000      0.233772   -0.74152500   -0.39745900
Se    9.16791000    3.20950000    0.41963000     -0.053467   -0.25286500   -0.06909900
Se   14.41478000    2.77804000    8.56758000      0.462723   -0.44410900   -0.04874200
Se    8.40873000    5.36103000   17.66573000      0.153089   -0.44867100   -0.10684200
Se   10.24286000    5.08566000    8.55161000      0.365244    1.15544000    0.29065300
Se   18.09032000   11.51798000   16.19454000      0.457938   -0.27742400    0.61894400
Se   13.27860000   19.54829000    8.39831000     -0.638118   -0.45962500   -1.17281900
Se   15.00304000   15.74588000   17.87420000      0.535340    0.62976200   -0.27246800
Se   15.67666000   22.86083000    7.36211000     -0.090597    1.29044900    0.05141300
Se   19.01311000    3.29944000   16.83275000     -0.057130   -1.07991400   -0.03168200
Se   17.75539000    4.05773000   11.02021000     -0.214279   -0.04283000    0.45788200
Se   23.23968000    3.49271000   17.50712000     -0.204969    0.31658400   -0.49570900
Se   19.14075000    9.21774000   13.18503000     -0.535162   -0.86877900    0.11662600
Se   20.08380000    9.98149000   16.83211000     -0.609363    0.61761000   -0.43558500
Se   15.72004000   18.69975000   10.90846000      0.748374    0.22893200    0.86658800
Se   18.81296000   14.62048000   17.62616000      0.442431   -0.78068500    0.37783400
Se   18.53711000   23.05165000    7.98784000     -0.319060   -0.40290000   -0.95431300
Se   18.02726000   19.73653000    1.26793000     -0.094141    1.16756400   -0.12297500
Se    4.55547000   22.12059000    9.13654000      0.645571   -0.11285800    0.11265400
Se    3.04543000    3.32325000    0.80166000      2.651762   -0.27819600   -0.15246900
Se    6.93533000    6.95118000   10.08720000     -0.028488   -0.40022800    0.34103700
Se    4.88989000    7.48846000    0.74114000      0.491036   -0.66833300   -0.23071900
Se    5.75469000   16.17653000    6.91223000     -1.209090   -0.12971400   -0.93292200
Se    6.97319000   12.00597000   17.40331000     -0.163973   -0.30139300   -0.09052800
Se    2.76518000   19.23096000    8.49033000     -1.108702   -0.20074400   -0.59225500
Se   22.23029000   19.60547000    0.91578000      0.140137   -0.19889200   -0.46727200
Se    9.06124000   23.36084000    7.06222000     -0.311006    1.18906900    0.68894000
Se   12.12298000    4.30681000    2.31502000      0.139479   -0.57920200    0.21255400
Se   11.09299000    2.37563000    9.11885000     -0.109972   -0.69009600    0.91036400
Se    8.29272000    6.52204000    0.48142000      0.245046    0.35494800    0.22131900
Se   10.95234000   13.93918000    7.93288000      0.291369   -0.41248100   -0.47693700
Se    9.05716000   13.55637000    0.16649000      0.349504    0.13621400    0.07995800
Se   13.72327000   22.97301000   10.27148000     -1.138607   -0.88287500    0.29835100
Se   14.92732000   12.67067000   17.14643000     -0.266555    0.45134200   -0.31216100
Se   18.11848000    3.25276000    7.48652000     -0.904781   -0.93966600   -0.80717900
Se   17.30960000    4.82903000    1.73512000     -0.264557   -0.49611900   -0.07364700
Se   15.47118000    8.02608000    8.96524000     -0.269044   -0.16344800    0.03397000
Se   15.60627000    8.92626000   17.23933000      0.083350   -0.90099800    0.50206300
Se   15.10145000   13.88272000    8.34394000     -0.896772    0.70213800    0.69781800
Se   16.07398000   12.79527000   19.45880000      0.112217   -0.11277800    0.34827200
Se   13.86519000   20.00730000    3.34682000      0.611077   -0.14779900   -1.18800200
Se   19.85363000   21.41391000   17.68326000     -0.117335   -0.01805200    0.83532300
Se   21.60014000    1.02721000    7.41757000      0.682689    0.22719500    0.17004000
Se    0.46784000   23.66021000   15.92042000     -0.017072    0.47573900    0.03322500
Se   20.98195000    7.60412000    9.22427000      0.478940   -0.99736500    0.03928400
Se   22.69296000    7.95295000   16.74991000      0.548208    0.10290800    0.35466700
Se    0.08633000   11.24184000    7.81554000     -0.387085   -1.71414100   -0.06985900
Se   22.17152000    8.31682000   19.06190000      0.254376    0.10832800   -0.01613500
Se   21.44234000   17.30227000    8.01793000     -0.215504    0.64623700   -0.52958100
Se   18.89225000   17.65896000   18.30655000      0.035717    0.25285800   -0.04784700
Se    1.02713000   23.19976000    8.94131000      0.047847   -1.69311500   -0.40720100
Se    3.36138000    0.65630000   12.85708000      0.218200    0.04636700   -0.21517600
Se    2.43021000    8.01081000    8.42003000      0.371207    0.82994200   -0.36291100
Se    2.39227000    8.41216000   17.87158000     -0.080590   -0.11425400    0.28164600
Se    0.99539000   16.08868000    8.66990000     -0.218635   -0.03311100    0.30660100
Se    1.04539000   13.16467000   17.97394000     -0.193574   -0.71699500   -0.15445800
Se    3.54447000   19.69050000    5.66656000     -0.200941    0.00906100   -0.08186600
Se   23.23126000   19.44975000   16.61868000     -0.693183   -0.55609500    0.23386800
Se    6.85254000   23.49786000    4.77939000     -0.116996    0.32600500   -0.58807000
Se    6.27289000    0.91881000   17.82413000     -0.327029    0.14327900    0.07291400
Se   11.42279000    6.31331000    4.72517000     -0.453348   -0.71143200    0.75636200
Se    6.56652000    7.90521000   15.77946000     -0.060971   -0.52437100   -0.70866800
Se    7.53775000   15.06747000    7.83940000      0.498855   -0.50080300    0.39372100
Se    8.81448000   18.65173000   13.61064000     -0.588113    0.14229300   -0.09560200
Se    7.66512000   16.57795000    3.12581000     -0.222504   -0.87715700   -0.20066600
Se    9.49911000   16.22395000   15.18449000     -0.107990   -0.22013600   -0.38504500
Se   14.27918000   21.64897000    4.97851000      0.397550    0.43271800    1.06776800
Se   14.18191000   22.74969000   15.99502000     -0.588643    0.63797300    0.04712000
Se   13.35372000    7.95883000    3.96289000      0.956428    0.69274100    0.48020800
Se    9.08645000    7.92086000   13.66722000      0.766803    0.16816000   -1.82427800
Se   13.63207000   12.29133000    4.75153000      1.084329    0.47256900   -0.16081400
Se   14.63467000   15.34648000   14.62729000      0.047774   -0.29272200   -0.54343600
Se   11.85743000   19.38013000    4.17466000     -0.647200   -1.28641100    0.58643600
Se   15.98263000   20.40878000   17.59806000     -0.004573   -0.26449200   -0.22181300
Se   17.99921000    1.59815000    4.36684000     -0.187531    0.42783000   -0.04503200
Se   19.46933000    1.51439000   18.35856000     -0.195873    0.02692600   -0.02161000
Se   19.53033000    8.23521000    4.62088000     -0.196516   -0.25476200    0.49529000
Se   19.81393000    5.49556000   17.25518000      0.220451    0.73357600   -0.08866600
Se   19.87331000   12.12045000    4.05326000     -0.491699   -1.56370300    1.44330700
Se   16.85646000   12.54350000   12.08239000      0.008631    0.93198800    0.30176200
Se   19.48838000   18.47548000    4.66762000     -0.477372   -0.17506800   -0.04220200
Se   20.98505000   20.51441000   14.46478000     -0.229407   -0.10919400    0.00169100
Se    5.58239000    6.60939000    6.60498000     -0.342266    0.09853500    0.33952100
Se    3.34031000    3.53206000   16.79351000     -0.777042    0.28171900   -0.54957300
Se    3.23579000    9.40516000    3.30664000      0.265306    0.42659300    0.21911400
Se    4.81890000   10.47488000   14.40899000      0.634093    0.54923900    0.68797500
Se    4.53478000   14.03552000    5.36668000      0.705774    0.40659800    0.28288900
Se    1.53266000   17.07893000   18.77918000     -0.849920   -0.77635200    0.12529100
Se    1.64465000    0.03853000    5.65514000     -0.123370   -0.52261400   -0.34511100
Se    3.10541000   20.87924000   13.16867000      0.135237   -0.64367500    0.60551600
Se   12.53717000    0.56660000    6.30204000      0.245792   -0.92467100    0.33828200
Se    6.84772000    4.75068000   15.90315000      1.018066   -0.35007900    0.02559500
Se   11.84563000   11.67198000    7.01164000     -1.067813    0.73548800    0.60676100
Se   11.00026000   14.59514000   17.36137000      1.141250    0.07368300    0.63409900
Se   10.30811000   17.01927000    9.46052000     -0.270213    0.65942600    0.61084600
Se   10.94155000   20.18341000   18.53295000      0.606385   -0.21586300    0.30001800
Se   10.68131000   21.82004000    3.80947000     -0.872676    0.21091400   -0.02129900
Se    8.58386000   20.95769000   18.38740000     -0.843678    0.03702800    1.26507800
Se   15.52702000    4.88607000    5.78717000     -0.562935    0.43382500   -0.29879000
Se   13.93162000    6.13051000    0.33390000     -0.057151    0.21307000   -0.95216800
Se   16.43507000   10.35055000    6.57476000     -0.776757    1.13263400   -0.27158100
Se   18.12876000    6.80086000   13.43375000      0.614277    1.34530700    0.05020000
Se   17.31688000   14.24171000    5.51453000      0.206293   -0.06219600   -0.33695000
Se   12.56120000   18.41889000   15.68116000      0.745541    0.04163400    0.20540900
Se   15.42347000   23.47176000    3.97419000      0.175607   -0.67992700   -0.64330300
Se   17.63126000    3.50930000   13.50543000     -0.400072    0.51098200   -0.73375900
Se   22.20227000    4.88781000    6.49276000     -1.057339   -0.08608800   -1.00225500
Se   22.65322000    5.65095000   14.02571000      0.953698   -1.28191900    0.85422800
Se   17.46259000   10.47789000   10.80495000      0.657507    0.06705300   -0.06828800
Se   21.97850000   14.44904000   15.34724000      0.139548   -0.39677400    0.16331200
Se   17.75885000   16.14760000    8.16496000     -0.418437    1.16533000   -0.09642200
Se   22.04056000   16.94479000   15.52520000      0.852368   -0.39948900    0.72443400
Se   20.87395000   22.73432000    8.47683000      0.458984   -0.27754900    0.27444100
Se   22.92606000   23.08500000   19.31890000     -0.048788    0.27131000   -0.22765500
Se    4.28201000    2.81289000    7.45730000      0.658701   -0.74494500   -1.29821900
Se    5.18317000    0.34134000   14.66780000     -0.912034   -0.64057800   -0.07371000
Se    4.15559000    5.30473000    3.26030000     -0.821466   -0.37556200    0.61096900
Se    4.67631000    8.53011000   11.14954000     -0.286807    0.51433700   -0.08549000
Se    1.71076000   11.22746000    3.56211000     -0.521638    0.37018000    0.03478000
Se    4.75333000   14.07117000   15.78340000     -0.816024    0.73575100   -0.78756300
Se    4.11495000   17.00071000    1.19470000     -0.024053    0.80234200    0.78138400
Se    3.43734000   16.82510000   13.07183000     -0.687063   -0.29884100    0.87077100
Se   10.64467000    0.55696000    2.08039000      0.233499   -0.73454600   -0.29401900
Se   10.91205000    1.78784000   14.69921000      0.092120   -0.19946400    0.01775400
Se    9.71307000    9.49173000    3.85359000      1.228121   -0.71085600   -1.23798500
Se    9.16895000    8.67436000   16.69643000      0.418307    0.20847000    0.62692400
Se    8.85696000   13.05274000    4.53875000     -0.024993    0.09974700    1.15468000
Se   12.37672000   11.19959000   12.69071000      1.109307    0.21386000    0.26045900
Se    9.20954000   18.94527000    1.92602000     -0.903367    1.02658400   -0.61730100
Se    9.10562000   22.23128000   15.67838000      0.252426    1.03919600   -0.85015700
Se   19.09372000    4.92877000    8.67911000      0.030933    0.26526300    1.09220400
Se   14.88310000    1.11040000   17.09929000     -0.280173   -0.63927800   -0.39922400
Se   17.02069000    7.68359000    3.58996000     -0.323999    0.61712100   -0.55034600
Se   12.92368000    7.42432000   14.21089000      0.500616    1.07792700    0.53454000
Se   17.27321000   12.87402000    2.11555000      1.099729   -1.63818600   -1.57208100
Se   19.28753000   18.36451000   14.12004000     -0.028561    0.19329700   -0.48771100
Se   15.57227000   17.07440000    3.10194000      0.025258   -0.57469700    1.52366000
Se   17.15024000   20.32478000   13.95562000     -1.751652   -0.98122300    0.49374900
Se   22.61121000    2.25104000    4.57170000      0.204343   -0.80165700   -0.41070600
Se   22.04447000    0.69799000   11.80574000      0.930715   -0.11850200   -0.05835800
Se    0.11990000    8.05331000    5.58746000     -0.018232   -2.04197900   -1.05338400
Se   21.58592000    6.97764000   12.56280000      0.065344    1.24613500   -0.24952600
Se    0.48210000   17.88517000    6.04433000      0.257080   -0.45813100    0.26818900
Se    1.13941000   11.62587000   14.54248000     -0.405989   -0.05695800   -0.27608600
Se   22.35141000   20.45948000    5.90452000      0.243293    0.43013600    0.28540000
Se   19.93450000   21.26921000   11.23114000     -0.168710    0.05212700    0.12601800
Se    2.49194000    4.23290000    6.40331000     -1.084012    0.01189200    1.69684300
Se    1.47741000    3.93858000   12.28876000      0.432838    0.55538100   -0.07325100
Se   22.02349000   11.00228000    4.68714000     -0.355689    0.23888100    0.27322000
Se    1.92083000    7.60224000   13.23783000     -0.209294    0.00768800    0.22187700
Se    1.22378000   15.12881000    2.15112000     -1.210850    0.51208200   -0.44643000
Se    0.96383000   16.27276000   14.14870000      1.027699    0.38766400   -0.85836200
Se    3.20106000   19.82515000    2.19952000     -0.510174    0.41785200   -0.40391500
Se    6.29273000   17.72466000   18.36225000      0.621184   -0.86705600   -0.59604600
Se   11.32090000    2.54387000    5.83791000     -0.658484    0.58222800   -0.97698500
Se    8.15696000    2.31246000   13.45313000     -0.204025   -0.40505200   -0.58389900
Se    6.28403000    8.60622000    3.02939000     -0.358387   -0.09684400   -0.39471800
Se    9.19937000   10.69638000   13.46498000     -1.037624   -0.24147400    0.92088700
Se    7.04053000   14.21713000    2.19443000      0.784049    0.15785100    0.76324800
Se   10.08481000   15.17472000   13.04694000     -0.485562    0.07792100    0.02992300
Se    6.44756000   23.37604000    9.90759000     -0.283393    0.11662900   -0.09566100
Se    5.75914000   20.13383000   16.39250000      0.144971   -0.59524000   -0.27969900
Se   13.20159000    0.33995000    2.76097000      0.406960    0.76917300    0.78648900
Se    9.71896000    5.35464000   13.21662000     -0.963813   -0.31754000    0.69944500
Se   13.63971000    9.72059000    1.19063000      0.042285    0.72947200    0.05943200
Se   15.22693000   11.01943000   13.38561000     -0.134313   -0.07694500   -0.06822900
Se   10.16642000   17.09828000    5.56562000      0.297404    0.27049500    0.11061300
Se   13.49746000   18.42238000   11.58572000      0.036179   -1.00533400    0.81621500
Se   14.76250000   21.23811000    0.52470000     -0.043057    0.39157300   -0.61209400
Se   15.17838000   22.32850000   13.94647000      0.368608    0.22675700   -0.41911700
Se   18.90116000    5.17418000   19.87233000     -0.253341    0.92991600    0.18804300
Se   14.12491000    6.12129000   10.08277000      1.228317   -0.25015200    0.55467700
Se   20.44913000    8.04978000    2.51872000      0.901164   -0.62408900   -0.44419700
Se    2.10213000   12.63881000   12.51201000      0.427849    0.04733600    0.65063500
Se   21.61035000   17.71061000    4.01089000     -0.903340    1.68599900   -2.41239300
Se   18.01575000   16.14177000   14.01182000     -0.201463    0.14103500   -0.30618500
Se   19.85303000   22.01840000    3.48177000     -0.050773    0.37205900    0.79633000
Se   19.09189000    0.19489000   14.53918000     -0.002422    0.13068900   -0.28694800
