384
23.69824000 23.69824000 19.89960000
Ge    5.15775000    5.88281000   12.91500000      0.457624    0.18950700   -0.05722400
Ge    6.47813000    4.47839000    3.61175000      0.775864   -0.50027200   -1.14040000
Ge    1.80230000   12.81123000    7.13561000      0.768536    0.68786600   -0.27026200
Ge    9.54516000   13.70767000   15.78596000     -0.682251   -0.36566700   -0.44101500
Ge    5.61439000   15.32018000    9.97192000     -0.475704   -0.28230900    0.12169000
Ge    8.80763000   18.48273000   19.07738000      0.335366   -0.30419600    0.64370200
Ge    7.96385000   23.37490000   12.41386000     -1.394051    0.34588200    0.70004700
Ge    4.76281000    0.93740000    0.63431000     -0.049590    0.13082800   -0.59772400
Ge    8.93418000    5.25233000   10.61361000      0.147252    0.43913000    0.25266200
Ge   11.29377000    6.19837000   18.92145000      0.375202    0.55397400   -0.37129400
Ge    9.74886000    7.75018000   11.04412000      1.556976   -0.42626700    1.03132600
Ge   13.27614000   11.48934000   18.96853000     -0.140901    0.08441300    0.57547900
Ge   11.16081000   19.40064000    9.70532000      0.360347    0.19391100   -0.27157700
Ge   12.80652000   15.85099000    0.10847000      0.437197   -0.31977100    0.61824000
Ge   10.96823000   23.52832000    8.97375000      0.544019    0.09581800   -0.08579300
Ge   16.18798000   22.81981000   18.63267000     -0.676279   -0.48379000    0.03520300
Ge   19.94586000    5.16488000   11.61864000     -0.425303    0.53851800   -0.16782000
Ge   19.80329000    8.08868000   18.49734000     -0.592728    0.31131600    0.41360800
Ge   19.54197000   11.74357000    9.99013000      0.184294   -0.22283200    0.59980300
Ge   18.47335000   12.29543000   18.78616000      0.082919    0.13448200   -0.91789600
Ge   15.43451000   20.76597000    8.98240000     -0.128737    0.67811600    0.52834000
Ge   17.38550000   15.48902000   19.76680000     -0.388780    0.15091700   -0.34324100
Ge   19.78130000    1.38950000   12.00581000     -0.943231   -0.24629400   -0.00606700
Ge   19.70319000    3.30662000    2.20934000      0.328460   -0.33300100   -1.14422500
Ge   23.26790000    5.87638000    8.32024000      0.105173    0.78662800    0.43440700
Ge    2.26261000    3.56863000    4.16889000      0.227918   -0.27117700   -1.90248500
Ge    1.74714000   10.21250000    9.67377000      0.152584   -0.04496500   -0.02910800
Ge    1.39198000    8.65603000    0.34957000      0.179064    1.31149100   -1.03976200
Ge   20.05041000   15.46684000    8.66933000      0.506703   -0.86614400    0.09669800
Ge    0.81752000   14.78761000   19.62673000     -0.354058    1.37919700   -0.53045300
Ge   19.09125000    1.51137000    9.06106000     -0.112616    0.69904500    0.50715700
Ge    0.91717000   20.81637000    0.49778000      0.155528   -0.44908800    0.20557500
Ge    4.99263000    9.23801000    8.53065000     -0.580607   -0.46188500    0.45346000
Ge    1.34297000    4.93084000   19.59586000      0.398667   -0.36657200   -1.35263200
Ge    1.60126000    9.65816000    6.39553000      1.428397    0.47435900    0.39113600
Ge    4.39683000   12.04972000   16.94029000     -0.112500   -1.68912300    0.70706100
Ge    5.68218000   17.96603000    3.94452000      0.400346    0.13209500   -0.48793200
Ge   22.79123000   17.53019000   18.32264000      0.598968    1.10568100   -0.52749800
Ge    4.71718000   19.51114000    9.69377000      1.167210    0.91417300    0.75768600
Ge    3.63269000   21.99391000   17.69181000      0.640669    0.79986000    0.22806900
Ge    9.42521000    2.19030000    7.42336000      1.391601   -1.18016400   -0.91696700
Ge    7.33910000    7.99168000   18.24637000     -0.114711   -0.27524600    1.17427600
Ge    6.50085000   12.62095000    6.51048000     -0.513620    0.14009600    0.03133200
Ge    8.44306000    8.70674000    1.86019000     -0.489737   -0.62344400   -0.49422200
Ge    8.70444000   18.97420000    7.58467000     -0.151686   -0.33482900    0.25601200
Ge    4.65235000   19.36711000   19.36175000     -0.419227    0.23018100    0.81080400
Ge   11.03321000   22.01506000    6.42112000      0.846307   -0.11910800   -0.06072000
Ge    9.86103000    3.08866000   17.98674000      0.089989    0.56330700    0.30106100
Ge   13.79757000    6.52912000    6.34745000     -0.287696    0.25449400   -0.52025300
Ge   14.07327000    8.33375000   19.16883000     -0.668041   -0.24256100    0.74194200
Ge   15.55841000   12.89093000    6.26779000      0.254954   -1.47629300    0.37442800
Ge   16.92878000   14.60433000   15.62077000      0.050969   -0.74827600    0.91178200
Ge   12.94896000   16.76935000    4.36862000     -0.249665    0.08360600   -0.08745800
Ge   15.47664000   17.41685000   15.90366000     -0.601566    0.14600500    0.09578400
Ge   15.28459000    0.77338000    9.33023000      0.901090    0.45222200   -0.55192500
Ge   15.80926000    5.18469000   18.57849000      0.505145    0.06537400   -0.08118400
Ge   19.73644000    6.45958000    7.01991000      1.155513    0.82244300   -0.50888400
Ge   22.11085000    5.65618000   16.56528000      0.489795   -0.82388100   -0.98078300
Ge   20.18247000    9.48574000    8.00743000     -0.275582    0.37487300    0.03902400
Ge   21.63295000   13.34093000   17.71299000      0.150928    0.09014400   -0.70011500
Ge   18.81504000   18.38880000    7.14543000      0.198286   -0.29119800    1.46363700
Ge   20.37322000   18.76669000   16.31194000      0.572666    0.76569000    0.75701300
Ge   19.90262000    0.35328000    5.26686000     -0.314265   -0.33682900   -0.13183500
Ge   19.95280000   21.55527000    0.52663000     -0.403435   -0.44970300   -0.50590000
Ge    5.36027000    2.27434000   11.21226000      0.652451   -0.79203700   -0.37438100
Ge    5.58394000    3.13291000   17.25153000      0.299170   -0.21964000    1.14931800
Ge    3.18597000    6.42519000    5.72214000      1.076047    1.47367500   -0.83511700
Ge    3.03116000   10.16229000   12.87978000     -0.661875   -0.57532300   -1.26795400
Ge    2.77908000   17.28793000    6.79382000      0.200778   -0.21467500    0.04064100
Ge    1.44567000   14.00378000   15.41569000      0.043985    0.34738400    0.29346800
Ge   22.60905000   21.28521000   10.49048000     -0.471133   -0.22729900   -0.31541700
Ge    2.62861000   22.87079000   14.70175000      0.761050   -0.17214000    0.79887200
Ge    9.85822000    2.60963000    3.08099000     -0.127696    1.39055400   -0.08673900
Ge    9.00495000    1.34650000   16.20736000     -0.199309   -0.46400200    0.43573900
Ge    8.91137000   10.67195000    5.62798000     -0.487025    0.82520400    1.51489600
Ge    7.57576000   10.18149000   15.83428000     -0.327830    1.56334800   -0.89917300
Ge    9.38532000   15.05927000    6.26700000      0.654693   -1.57023400    0.00318000
Ge   15.65415000   10.79385000   15.68848000      0.836136    0.23939900    1.06687300
Ge    8.02577000   21.31557000    4.80492000     -0.357595   -0.50800600   -0.65907900
Ge    8.40871000   19.90579000   16.13799000     -0.363235   -0.23686300   -0.53508800
Ge   14.94659000    1.58768000    6.32107000     -0.099554    0.10940300   -0.12222500
Ge   12.99567000    2.61086000   15.78208000      0.667783   -0.44535100    0.59535000
Ge   15.02278000   10.23616000    4.48897000      0.789933   -0.67570400   -0.08437200
Ge   15.71895000    7.39128000   15.05305000      0.149576   -0.65044100   -0.41678200
Ge   15.98587000   14.19734000    3.50383000     -1.911418    1.21425400    0.07003200
Ge   12.36895000   16.16315000   15.17063000     -0.052500    0.25518800    0.76306000
Ge   13.75158000   19.70313000   18.46255000      0.922482    0.20193600    0.21907100
Ge    9.86566000   21.38915000    0.87216000      0.397451   -0.46835200    0.13106700
Ge   23.37991000    4.35413000    3.87382000     -0.387283    1.06023200   -0.10054400
Ge    0.51817000    2.47816000   15.30730000     -0.547216   -0.16681200    0.04267100
Ge   21.66191000    8.73371000    5.92748000     -1.337125    1.05705700   -0.28255400
Ge   21.37843000   10.24934000   14.11742000     -0.632378   -0.29571500   -0.29420500
Ge   22.39153000   16.31361000    5.42977000      0.944105   -3.34682900    2.94311200
Ge   19.50174000   14.22150000   12.71627000      0.349255   -0.66298600   -0.34144200
Ge   19.89261000   20.74225000    6.04505000      0.196984    0.41754400   -0.73665500
Ge   21.18415000   23.45820000   17.60886000     -0.307519   -0.20521800   -0.07534300
Ge    6.04052000    4.33131000    6.02228000     -0.210208   -0.19295300    0.55603500
Ge    2.93900000    2.85709000   13.99944000     -2.826766    0.01984500    0.48093100
Ge    5.26406000   11.00371000    3.84928000      0.142894   -0.57496500   -0.95110100
Ge    6.96974000    9.38372000   12.43674000      0.061794   -0.05846500    0.26702700
Ge    5.31883000   15.10393000    0.84952000      0.118795   -0.07336700   -1.68179400
Ge    4.52396000   12.86880000   13.60166000      0.212566    0.78655200   -0.71271600
Ge    4.78225000   22.60247000    5.63092000     -0.363298   -0.19514700   -0.00057600
Ge    5.88200000   21.04201000   14.34092000      0.086644    1.30216700   -0.49774400
Ge   15.09504000    6.05479000    3.47997000     -0.237081   -0.22281200   -0.02214200
Ge   13.35279000    0.01628000   12.52289000      0.064844    0.03447900    0.54772800
Ge   10.57565000   10.24748000    1.01972000      0.535323   -0.26566300   -0.23928900
Ge   13.57427000    9.13248000   11.85012000      0.498203   -0.26383000    0.81684300
Ge   10.96554000   13.16145000    1.78257000      0.099692   -0.09690900    0.61515100
Ge    8.61875000   17.13299000   11.63840000      0.519992    0.53099200   -1.11939200
Ge   12.69615000   21.92410000    1.61512000     -0.145088    0.34398300   -0.21196100
Ge   11.26055000   22.98249000   13.98059000     -0.578666    0.02488700    0.12712800
Ge    1.09431000    0.84911000   18.40531000      0.052879   -0.22427200    0.73264100
Ge   12.07383000    5.78307000   12.81372000      1.139563   -0.98301100   -1.46043300
Ge   17.47572000    7.36753000    0.13970000      0.372131   -0.61157600    0.34084500
Ge   12.25591000    6.65304000    8.66558000      0.082726    0.29854900   -0.04147300
Ge   20.86773000   13.50338000    2.52058000      0.369015    1.56469400   -0.05970100
Ge   15.76806000   17.68971000    8.80568000     -0.061380   -1.44619800   -1.17351200
Ge   17.54143000   21.16851000    3.61209000      0.454840   -0.19442400   -0.49205500
Ge   18.91858000   21.59356000   13.66420000      2.097345    0.02768800   -0.84527800
Ge    0.67163000    1.10158000    3.10101000     -0.339392    0.07003100    0.28795800
Ge   22.37630000    1.94288000    9.73612000      1.152811    0.07102200   -0.17214200
Ge   23.18113000   10.30541000    2.45017000     -0.076990   -0.47916100    0.07453400
Ge   23.50433000    8.89996000   12.76493000     -0.084180   -0.26414800    0.71776400
Ge    2.83689000   13.70706000    2.99793000      1.399043   -1.30122000   -0.20280000
Ge    0.52724000   16.77398000   11.28589000     -0.200201    0.34885500   -0.22521500
Ge    0.13276000   21.80051000    4.57079000      0.518772   -0.14454300    0.93866700
Ge   20.71530000   17.41343000   11.65613000     -0.082997    2.74519100    0.41855300
Se    2.81005000   22.83973000    0.17545000      0.257454    1.06296500   -0.39634700
Se    1.42286000    1.57079000    9.62427000     -0.875776    1.51116600    0.45994100
Se    1.39397000    6.58076000    1.34868000     -0.146477   -0.32168800    1.80638200
Se   23.21293000    9.83601000   10.68027000     -0.128775    0.05936200   -0.65063300
Se   22.12327000   12.04968000    1.08851000      0.129886    0.12463900   -0.43676800
Se    0.18996000   13.75494000    8.69648000      0.464399    1.29110700    0.19348500
Se    1.64810000   19.67174000    4.19576000      0.266908    0.35460100   -0.69818400
Se   22.99869000   19.15225000   11.66544000      0.054622   -1.48934400    0.56001100
Se    7.00753000    2.05543000    2.53806000     -0.182086    0.65269900    0.42757300
Se    5.06466000    3.39191000   13.58554000      2.445103    1.45340200   -0.38668800
Se    9.69105000    4.73078000    5.34867000     -0.342528    0.25120700   -0.31856600
Se    8.12962000    9.06106000    9.94925000     -0.896637    0.91098800   -0.67923100
Se    7.80483000   10.17915000   19.88379000      0.401000    0.32310900    0.22130300
Se    7.42499000   15.13523000   11.62511000     -0.868460   -0.99258500    0.20665800
Se    6.93868000   20.22462000    2.46626000      1.138226   -0.68234200    0.39283000
Se    9.01048000   20.67224000   12.44206000      0.215560    0.29087700   -0.34889100
Se   12.21646000    0.48673000   19.82431000      0.049488    0.25416400    0.22383000
Se   12.69871000    2.32886000   11.97794000     -0.563242   -0.69019000   -1.53980600
Se   11.75879000    8.82008000   18.52513000     -0.563654   -0.24472000   -0.31591700
Se   10.08910000   10.16459000    8.00019000      0.212214    0.44682100   -1.08929900
Se   13.32886000   13.35800000    0.86170000     -0.114869    0.53859900   -0.18236600
Se   11.96792000    8.86840000   10.02334000     -1.226164   -0.18423900   -0.88270300
Se   15.11712000   17.03868000    0.84576000     -0.598154   -0.13234500   -0.98608200
Se   11.53939000   20.01173000   11.96173000      0.556461    0.32480200    0.32323900
Se   19.12234000    3.70667000    4.44465000     -0.010960    0.19072400    1.23639100
Se   13.71656000    3.51256000   13.56731000      1.250126    1.69385800    1.18590600
Se   16.08392000    5.10212000   16.03154000     -0.603797    0.51101900    0.56464200
Se   19.96923000    3.50404000   13.44778000      0.909156   -0.13222000    0.89051600
Se   19.31593000    9.47832000    1.11964000     -0.459406    0.31648800   -1.05991900
Se   16.20272000   19.24808000    7.11887000      0.291108    0.54402500   -1.11188300
Se   19.24604000   17.62840000    0.78598000      0.525902    0.47743100    0.09126300
Se   20.27312000   19.10612000    9.64536000     -0.446707    0.02256100   -0.05919400
Se    3.36488000    0.26436000    3.92367000     -0.000053   -0.25342000    0.96471000
Se    2.88663000    6.05822000   11.60649000     -0.662483   -0.76035900    0.10638800
Se    5.76689000   11.69305000    0.62802000      0.127521    0.07823700    0.13716100
Se    4.68919000   12.60459000   10.72459000      0.472080    0.97570100    0.35317900
Se    3.79725000   13.34291000    0.13190000     -0.097557   -0.43432500    1.04235800
Se    3.27892000   17.20367000   10.79746000     -0.267136   -0.33680200    0.29663900
Se    6.05320000   21.74133000   18.92908000     -0.791320    0.09488000    0.64714700
Se    5.11570000   20.27069000   12.09810000      0.227222   -0.31462800   -0.93578400
Se   10.78701000    5.99202000    1.38978000     -0.418390    0.36201500    1.25464300
Se    7.99332000    2.87349000   11.01084000     -0.540633   -0.53685900    0.54062000
Se   10.69622000   12.36596000   18.58029000     -0.127076   -0.29770800   -0.39614600
Se   10.36086000   11.58700000   11.59658000     -1.110353    0.17309300   -0.79142600
Se   11.47196000   15.74877000    2.59750000      0.275473    0.12973600   -0.68700100
Se   12.37067000   15.76541000   12.76308000      0.141540    0.08019400   -0.25407100
Se   10.86811000   23.47189000   18.14707000     -0.602882    0.15555100   -0.82293800
Se   10.14675000   23.24366000   11.54171000      0.981253    0.29144900    0.08919300
Se   12.07786000    4.27302000   17.33716000     -0.063193   -0.42303300   -0.08930100
Se   17.96044000    8.53578000    9.31382000     -0.371950   -0.95250800   -0.81307400
Se   16.92924000   10.25623000    2.67263000     -0.804009   -0.29709900    0.70596500
Se   18.33512000   13.98447000   10.35821000     -0.200946   -0.63399500    0.57519100
Se   19.23385000   15.60549000    2.29486000      0.150088   -0.99821700   -0.48374200
Se   14.14769000   16.16312000    7.82844000      0.057053   -0.80734400    0.43125300
Se   17.81518000   23.46008000    0.27764000      0.682117   -0.10111200    0.54815900
Se   17.21955000    0.93453000   10.74867000     -0.644218   -0.03717800   -0.11317500
Se    0.91983000    2.57107000    0.77115000     -2.394831   -0.77006300    0.58368900
Se   22.20888000    4.38591000   10.10604000     -0.205859   -0.38530100    0.78646900
Se   21.72647000    4.79750000    2.09752000      0.409891    0.48083800    0.03304700
Se   21.02043000   11.90759000   12.25500000     -0.314518    0.12489800   -0.09628500
Se   22.78524000   14.22877000    4.09721000      0.437494    0.58697700    0.26948100
Se   21.66994000   15.41075000   11.11500000      0.430873   -1.29689000   -0.19262200
Se   23.03287000   21.86960000    2.37107000     -0.191084    0.53533400   -0.40154000
Se   21.46951000   23.55782000   15.05972000      0.375931    0.57697000    0.62354000
Se    4.24433000    3.76728000    9.44891000     -0.151988    0.77609300    1.14193100
Se    4.57859000    5.89773000   18.31293000     -0.340411   -0.25567000    1.50264500
Se    4.39132000   11.85725000    8.47924000     -0.258475   -0.18807200   -0.53721000
Se    4.46596000    6.74933000   15.13933000     -0.760538    0.49278100    0.10103000
Se    6.68262000   19.60238000    6.18538000     -0.335012    0.21243900   -0.38782400
Se   22.03553000   15.24828000   19.19868000     -0.185322   -0.00888700    0.94676800
Se    1.23078000   21.82949000   10.98842000      0.337222    0.41567700   -0.23632200
Se    2.41364000   19.96306000   18.20400000     -0.022043   -0.96478700   -0.37097600
Se    7.32996000    3.05009000    7.73605000     -0.664535    0.27652800    0.60037500
Se    5.53323000    4.13021000   19.83106000      0.686130    0.65558400   -1.41125200
Se    6.35065000    9.84226000    5.91432000      0.525895    0.77791100    0.14934700
Se    4.14915000    9.35562000   19.27430000     -0.584399    0.24128000   -0.15387300
Se    6.86243000   18.38049000    9.40692000      0.093353   -0.54427500    0.38953700
Se    6.04563000   15.26782000   18.23460000      0.289171    0.94873000    1.05815600
Se    9.43128000   20.99236000    9.04684000      0.136181   -0.62469800   -0.37813000
Se    9.16206000    3.20706000    0.41973000     -0.073368   -0.24377100   -0.07451900
Se   14.42942000    2.81451000    8.50193000      0.315863   -0.27274300    0.12285600
Se    8.44684000    5.41355000   17.62192000      0.018378   -0.69297200   -0.29195900
Se   10.27223000    5.06660000    8.57708000      0.430736    1.10776100    0.22565600
Se   18.09924000   11.42686000   16.23003000      0.649376   -0.07518300    0.56659700
Se   13.26406000   19.57769000    8.37314000     -0.742125   -0.28533000   -0.70541600
Se   15.08530000   15.77819000   17.79098000      0.506934    0.55928900   -0.03781200
Se   15.68963000   22.91744000    7.32832000     -0.164391    1.09165100    0.19155400
Se   18.99722000    3.34390000   16.80007000      0.043571   -1.27486300    0.29057600
Se   17.76713000    4.10192000   10.95822000     -0.119176   -0.15974700    0.51115700
Se   23.24804000    3.45424000   17.45556000     -0.024586    0.35150500   -0.58042300
Se   19.15545000    9.19212000   13.14921000     -0.541136   -0.80278000    0.18456600
Se   20.14755000    9.91606000   16.83937000     -0.794711    0.87453300   -0.57564600
Se   15.69315000   18.73595000   10.87598000      0.556324    0.21977400    1.34713100
Se   18.74834000   14.65519000   17.59309000      0.658237   -0.88619400    0.34535100
Se   18.55782000   23.05349000    8.00763000     -0.624772   -0.47901100   -1.14377800
Se   18.03798000   19.77914000    1.21083000     -0.211851    1.18627200    0.07780000
Se    4.56584000   22.10565000    9.11057000      0.576646   -0.09159400    0.08572800
Se    3.08719000    3.29635000    0.81527000      1.982356   -0.42064300   -0.03165700
Se    6.97404000    6.96642000   10.09012000     -0.447296   -0.63528500    0.23841600
Se    4.86280000    7.51823000    0.73796000      0.416661   -0.46692900   -0.33391300
Se    5.76004000   16.14346000    6.90738000     -1.963483    0.43379300   -1.39001300
Se    6.95952000   12.01486000   17.36160000      0.184411   -0.30523200    0.03608400
Se    2.77457000   19.24337000    8.50792000     -1.196381   -0.33062400   -0.63177300
Se   22.18885000   19.61873000    0.97506000      0.191844   -0.06445000   -0.44023900
Se    9.05580000   23.33289000    7.04482000     -0.384022    1.34952800    0.68636100
Se   12.12602000    4.29807000    2.33531000      0.086406   -0.50879600    0.22110800
Se   11.05816000    2.43263000    9.11858000     -0.300679   -1.06222400    0.74084700
Se    8.29003000    6.49558000    0.44908000      0.221670    0.44865600    0.14696100
Se   10.93385000   13.95797000    7.93355000      0.311896   -0.60588000   -0.71622600
Se    9.12279000   13.51005000    0.11457000     -0.089443    0.29836100    0.54312400
Se   13.75401000   23.00646000   10.28432000     -1.138283   -1.14348300    0.05991700
Se   14.92834000   12.63710000   17.16559000     -0.173776    0.34391000   -0.51557400
Se   18.12596000    3.24710000    7.43027000     -0.564060   -1.02429800   -0.40595700
Se   17.33380000    4.79745000    1.67812000     -1.397906   -0.67243100    0.80478400
Se   15.46683000    8.05704000    8.95573000     -0.210168   -0.26591900    0.09319500
Se   15.58221000    8.88001000   17.22723000      0.113535   -0.79095200    0.36391900
Se   15.14494000   13.90993000    8.36651000     -0.961907    0.64846800    0.39133200
Se   16.08334000   12.86419000   19.41358000      0.447089   -0.38676000    0.58182400
Se   13.83953000   20.02851000    3.28384000      0.344984   -0.26258000   -0.91599300
Se   19.87512000   21.45168000   17.68178000     -0.294558   -0.25818000    0.82194500
Se   21.60676000    0.98813000    7.41075000      0.772520    0.52626100    0.21731300
Se    0.45444000   23.68548000   15.93285000      0.096642    0.50140800   -0.16812000
Se   21.03359000    7.57642000    9.22805000      0.384500   -0.72308900   -0.06777100
Se   22.68892000    7.98893000   16.76231000      0.640295   -0.13516700    0.09099200
Se    0.12326000   11.21810000    7.77324000     -0.744184   -1.70636100    0.21141000
Se   22.17600000    8.35558000   19.04143000      0.294369    0.21260800    0.34016800
Se   21.48738000   17.30444000    7.99412000     -0.408680    0.58194000   -0.22917500
Se   18.87229000   17.65903000   18.29108000      0.016166    0.31162100   -0.06577300
Se    1.02809000   23.19530000    8.91861000      0.005932   -1.64233100   -0.10407800
Se    3.27906000    0.65879000   12.86251000      0.430017    0.06991700   -0.39108000
Se    2.46675000    8.00560000    8.42561000      0.327221    0.83242900   -0.33109000
Se    2.40336000    8.36248000   17.84608000      0.043042    0.01400900    0.49706100
Se    1.03487000   16.06924000    8.67817000     -0.239578    0.02700100    0.28330700
Se    1.05310000   13.16251000   17.95038000     -0.271990   -0.79012600   -0.16749300
Se    3.55585000   19.67412000    5.63960000     -0.181095    0.12541700    0.04087300
Se   23.22873000   19.44163000   16.60359000     -0.644858   -0.46352600    0.33896600
Se    6.83110000   23.50047000    4.76465000      0.174238    0.22465300   -0.67488900
Se    6.25497000    0.93135000   17.85910000     -0.300188   -0.23796200    0.09790100
Se   11.37690000    6.24708000    4.78780000      0.092026   -0.24244500    0.36419900
Se    6.54859000    7.93439000   15.80815000     -0.450462   -0.70479900   -0.92886600
Se    7.45912000   15.05131000    7.82245000      1.461785   -1.01598400    0.83561000
Se    8.81527000   18.67524000   13.60036000     -0.614619   -0.52476900    0.32768500
Se    7.66876000   16.63461000    3.14018000     -0.286905   -1.08652100   -0.32269000
Se    9.50493000   16.19481000   15.15280000     -0.180043   -0.21395000   -0.02164000
Se   14.23178000   21.64878000    4.94242000      0.714358    0.55006900    1.00425500
Se   14.18156000   22.69279000   15.98787000     -0.813443    1.01874400    0.53976300
Se   13.37670000    7.98243000    3.97107000      0.835266    0.44325000    0.59238700
Se    9.09315000    7.92085000   13.61586000      0.746900    0.15809100   -1.46736300
Se   13.66244000   12.34202000    4.72963000      0.728463    0.55132600   -0.07647100
Se   14.62002000   15.30011000   14.64420000      0.028228    0.19796900   -0.30660100
Se   11.82763000   19.37531000    4.15795000     -0.426132   -1.13035100    0.43044100
Se   16.01447000   20.47067000   17.61192000      0.118612   -0.40620200   -0.33737900
Se   17.97770000    1.61279000    4.36797000     -0.138075   -0.02120100    0.04676600
Se   19.48473000    1.55910000   18.38497000     -0.133377    0.14600500   -0.42088700
Se   19.51847000    8.20144000    4.62420000      0.286156   -0.29209400   -0.00552300
Se   19.84843000    5.49935000   17.26011000     -0.194375    0.73625700    0.08985600
Se   19.92466000   12.11059000    4.07294000     -0.363338   -1.26317400    1.12681800
Se   16.82332000   12.53755000   12.07299000      0.004277    0.97825600    0.34857300
Se   19.47325000   18.42671000    4.70289000     -0.498767   -0.02634300   -0.49103100
Se   21.05340000   20.47110000   14.45461000     -0.805749    0.08997000   -0.21700300
Se    5.56630000    6.58797000    6.65222000     -0.276688   -0.17389900    0.21892000
Se    3.33005000    3.57356000   16.82748000     -0.861643    0.28895700   -0.46418600
Se    3.25999000    9.44441000    3.28258000     -0.069007    0.66040800    0.24775300
Se    4.82390000   10.55117000   14.38581000      0.776656   -0.06383400    0.88169700
Se    4.52705000   14.01927000    5.39114000      0.688147    0.34332200    0.33099900
Se    1.48079000   17.05026000   18.79315000     -0.478369   -0.69276100    0.06708000
Se    1.66852000    0.04800000    5.68474000      0.064391   -0.45247900   -0.75913200
Se    3.10995000   20.92352000   13.22461000      0.166212   -1.01077500    0.45888600
Se   12.50468000    0.55457000    6.28972000      0.277602   -1.01205300    0.41062500
Se    6.81950000    4.70211000   15.90304000      1.050169   -0.27532500    0.23392300
Se   11.80790000   11.63143000    7.01779000     -1.221838    0.94518100    0.71490700
Se   10.99915000   14.59292000   17.42168000      0.883619   -0.13672300    0.14939600
Se   10.30538000   17.12255000    9.54068000     -0.381794   -0.05856000    0.55451900
Se   10.90452000   20.13874000   18.53007000      1.067319   -0.16105900    0.27978600
Se   10.72146000   21.78272000    3.83889000     -0.877257    0.26004500   -0.17573300
Se    8.59399000   20.94484000   18.40967000     -1.202716    0.24122900    1.04616700
Se   15.51943000    4.88061000    5.80551000     -0.527618    0.36607900   -0.21236000
Se   13.92855000    6.13198000    0.38057000     -0.131162    0.18071200   -0.90998300
Se   16.48148000   10.33348000    6.59532000     -1.051168    1.24825700   -0.46982700
Se   18.12440000    6.79012000   13.46114000      0.553622    1.39236500    0.03684400
Se   17.30942000   14.23543000    5.47318000      0.547092    0.05255600    0.06885900
Se   12.53582000   18.44335000   15.66820000      0.755533    0.00061700    0.22876000
Se   15.48350000   23.41427000    3.90082000     -0.003748   -0.78207900   -0.39795700
Se   17.62724000    3.48245000   13.47723000     -0.356597    0.58083400   -0.78870800
Se   22.13906000    4.83960000    6.53431000     -0.874216    0.00379100   -1.07366500
Se   22.60563000    5.65912000   14.02828000      1.251254   -1.67675100    1.19494700
Se   17.47463000   10.44532000   10.84057000      0.510907    0.17676900    0.15159400
Se   22.00896000   14.48334000   15.37749000      0.026332   -0.68026300    0.01170900
Se   17.73260000   16.18860000    8.10519000      0.065994    0.74302800   -0.03786300
Se   22.02917000   16.90468000   15.58217000      0.872876   -0.01444700    0.80077500
Se   20.87234000   22.74259000    8.51326000      0.597032   -0.49801800    0.31719200
Se   22.91167000   23.05536000   19.34984000     -0.009489    0.50438500   -0.59378300
Se    4.29441000    2.80978000    7.42151000      0.612721   -0.67048600   -1.08045900
Se    5.16306000    0.33793000   14.69822000     -0.984460   -0.63761400   -0.02274800
Se    4.18206000    5.30192000    3.28342000     -1.027545   -0.26937600    0.56062100
Se    4.72528000    8.56878000   11.13044000     -0.495197    0.48509400   -0.14200400
Se    1.68024000   11.28154000    3.55311000     -0.136466    0.14341900    0.05532100
Se    4.74106000   14.04352000   15.86007000     -0.787989    1.63378300   -1.47205700
Se    4.05173000   16.99553000    1.17857000     -0.006145    0.78202000    0.77958500
Se    3.40575000   16.81049000   13.10044000     -0.645975   -0.30884800    0.90547900
Se   10.69238000    0.55875000    2.05566000      0.298182   -0.55603500   -0.21415900
Se   10.95025000    1.86331000   14.73101000     -0.263257   -0.64143100   -0.41100400
Se    9.75512000    9.52151000    3.85361000      0.976891   -0.71735000   -1.21460200
Se    9.16430000    8.69178000   16.70939000      1.029691   -0.10453300    0.59623600
Se    8.84705000   13.06179000    4.59181000     -0.159177    0.09889300    0.86573100
Se   12.31150000   11.19432000   12.65401000      1.591323    0.04826800    0.53622500
Se    9.17708000   18.94846000    1.87448000     -0.984070    1.14592900   -0.53122800
Se    9.11269000   22.23309000   15.68373000      0.206666    0.79763600   -0.84377800
Se   19.12442000    4.91095000    8.64271000     -0.339013   -0.34330300    1.40561800
Se   14.90811000    1.10023000   17.12123000     -0.356936   -0.84182200   -0.40677200
Se   16.98522000    7.66110000    3.55125000      0.156193    0.74600000   -0.59768100
Se   12.95862000    7.42127000   14.16708000      0.571480    1.17430700    0.62468000
Se   17.30906000   12.90845000    2.11137000      0.853638   -1.43852700   -1.37403500
Se   19.30437000   18.35429000   14.09545000      0.022380    0.20055700   -0.58583100
Se   15.55149000   17.06077000    3.10378000     -0.080872   -0.51690300    0.97137900
Se   17.12884000   20.27872000   13.99277000     -1.295601   -0.64894100    0.45988000
Se   22.62860000    2.28487000    4.60651000      0.021668   -1.52276400   -0.21777400
Se   22.02707000    0.64712000   11.81766000      1.205575    0.03856400   -0.25440500
Se    0.12036000    8.03048000    5.58261000      0.140463   -1.61731000   -0.80121700
Se   21.59326000    6.97784000   12.56864000     -0.273462    1.38382000   -0.64625100
Se    0.40870000   17.91229000    6.09230000      0.984555   -0.41120800    0.46390300
Se    1.12170000   11.61336000   14.49981000     -0.534222   -0.22559500   -0.07378800
Se   22.34769000   20.43151000    5.91827000      0.222116    0.52943300    0.31937200
Se   19.95353000   21.34817000   11.20919000     -0.365241   -0.23660400    0.21346200
Se    2.50037000    4.27238000    6.41819000     -1.328479   -0.61018900    1.64740600
Se    1.47033000    4.01834000   12.22763000      0.754610    0.22079800    0.19427400
Se   22.07199000   10.98052000    4.69826000     -0.412941    0.22417100    0.09208300
Se    1.97329000    7.62852000   13.18389000     -0.399988    0.05943700    0.53073300
Se    1.17253000   15.09137000    2.16216000     -1.273986    0.57106700   -0.44797200
Se    0.99148000   16.27825000   14.12407000      1.049882    0.37581500   -0.81231700
Se    3.18290000   19.80258000    2.21189000     -0.614481    0.38192100   -0.41696600
Se    6.38271000   17.69624000   18.42124000      0.147259   -0.65677800   -0.43820100
Se   11.31402000    2.53574000    5.83260000     -0.748039    0.62046900   -0.98240800
Se    8.14035000    2.28004000   13.44868000     -0.247849   -0.40363500   -0.82588000
Se    6.27113000    8.61055000    3.04606000     -0.442377   -0.10155800   -0.26919900
Se    9.15432000   10.66983000   13.46861000     -0.803732    0.02269000    0.60367300
Se    7.05994000   14.19400000    2.16044000      0.235197    0.58771300    0.48408900
Se   10.10741000   15.13302000   13.08449000     -0.634358   -0.15888900   -0.30118200
Se    6.40484000   23.42218000    9.89442000     -0.311352    0.19500400    0.00142900
Se    5.77471000   20.11375000   16.41469000     -0.021690   -0.79895300   -0.00593400
Se   13.21889000    0.37580000    2.78519000      0.250395    0.12549400    0.22900100
Se    9.75086000    5.34123000   13.21969000     -1.132165   -0.38923600    0.60354000
Se   13.67320000    9.77687000    1.18812000     -0.040076    0.63814100    0.03589000
Se   15.21770000   11.00269000   13.42905000     -0.115046   -0.00536000   -0.36897400
Se   10.17825000   17.09202000    5.58177000      0.260882    0.34900600    0.07391400
Se   13.46087000   18.44734000   11.64685000      0.244637   -0.73588700    0.60008900
Se   14.74212000   21.23458000    0.45813000      0.141463    0.45414000   -0.47587500
Se   15.17542000   22.36179000   13.99213000      0.630688    0.03742400   -0.86569000
Se   18.89172000    5.14975000    0.06106000      0.714153    1.13462400   -0.87888100
Se   14.10529000    6.10779000   10.13568000      0.663273    0.14446700    0.11481000
Se   20.46182000    7.99543000    2.45114000      0.585880   -0.55138800    0.26871500
Se    2.07925000   12.63328000   12.51777000      0.281928    0.28997700    0.36892800
Se   21.63125000   17.73868000    4.03710000     -1.420220    2.74539600   -3.62181900
Se   18.04203000   16.09183000   14.02149000     -0.200555    0.35425800   -0.29169800
Se   19.90140000   22.02658000    3.46177000     -0.566428    0.25464700    0.92508700
Se   19.12372000    0.17888000   14.51654000     -0.198836    0.14820200   -0.28927700
