384
23.69824000 23.69824000 19.89960000
Ge    5.29784000    5.83239000   12.74407000     -0.466080    0.82349300    0.52125400
Ge    6.41139000    4.31509000    3.61693000      0.977845   -0.52458500   -0.62580800
Ge    1.80772000   12.83782000    7.14998000      0.059362    0.39039400    0.17996000
Ge    9.58032000   13.54923000   15.77744000      0.204523    0.68142600    0.26386600
Ge    5.56267000   15.35754000    9.94387000     -0.189367   -0.36413200    0.42584400
Ge    8.78716000   18.45911000   18.98298000      1.549112    0.28107800    1.13420800
Ge    7.82784000   23.50939000   12.51227000      0.269614   -0.43438300   -0.27275500
Ge    4.64897000    0.90576000    0.71748000      0.327428   -0.02857400   -0.51959300
Ge    8.86869000    5.35865000   10.52878000      0.414314   -0.39707300    0.70026000
Ge   11.51984000    6.35372000   19.04546000      0.764490   -0.08826900   -0.95927500
Ge    9.69673000    7.68468000   11.21186000      1.818257    0.07236300   -2.20871000
Ge   13.29220000   11.59791000   18.82050000     -0.411142   -0.72259000    0.72948900
Ge   11.06229000   19.47364000    9.92952000      1.995683    1.95654300   -0.71049200
Ge   12.83011000   15.95671000    0.26767000     -0.512917   -0.98133100   -0.47530600
Ge   10.87914000   23.46668000    8.68521000      0.759094    0.21921400    1.50498100
Ge   16.09380000   22.85221000   18.58979000      0.428754    0.14894300    0.58649200
Ge   20.02824000    5.01281000   11.50973000      0.055201    0.61009600    0.38340200
Ge   19.74845000    8.18326000   18.55588000     -0.202173   -0.17004900    0.91074600
Ge   19.55566000   11.60592000   10.14749000      0.736405    0.04630100    0.15130300
Ge   18.60305000   12.31231000   18.67787000     -0.346178    0.45065800   -0.17559600
Ge   15.66905000   20.77179000    8.93552000     -0.982522    0.19512600    0.26855600
Ge   17.20823000   15.63389000   19.66491000      0.181198   -0.24176600   -0.58910600
Ge   19.76406000    1.43697000   11.92863000     -0.330809   -0.81480700    0.41686500
Ge   19.81924000    3.37936000    2.37744000      0.165372   -0.45838800   -0.49768000
Ge   23.30004000    6.01669000    8.22173000     -0.285677    0.15839200   -0.35280800
Ge    2.34059000    3.72641000    3.99437000     -0.106809   -0.41879200   -0.07322400
Ge    1.74880000   10.24249000    9.65672000      0.062041    0.00992600    0.32347900
Ge    1.51604000    8.56485000    0.34595000     -0.183228    1.23856700   -1.00756500
Ge   20.15811000   15.42025000    8.59817000      0.275043   -0.17799700    0.07416400
Ge    0.79888000   14.79690000   19.55600000     -0.752759   -0.36062600    0.12858900
Ge   19.25148000    1.47896000    9.17513000     -1.130816    0.34659700   -0.28362800
Ge    0.87754000   20.76410000    0.49184000      0.015487   -0.16670500    0.30278000
Ge    4.83493000    9.23029000    8.69936000      0.374647   -0.44146800   -0.65128500
Ge    1.48312000    4.76465000   19.66754000      0.191226   -0.02229700   -0.55426400
Ge    1.73095000    9.71645000    6.45213000      0.891000   -1.24958000   -0.93866200
Ge    4.49579000   11.92969000   16.91783000     -0.455461   -1.05561100    0.21234400
Ge    5.63155000   17.88369000    3.99236000      0.567598    0.14307000   -0.60284800
Ge   22.93017000   17.57891000   18.21909000     -1.306200    0.09368300   -0.66999500
Ge    4.82829000   19.62570000    9.76238000      0.198160    0.42624900    0.05966100
Ge    3.64570000   22.06725000   17.49326000      0.475934    0.06785500    1.02343800
Ge    9.44058000    2.14698000    7.33298000      0.097459   -0.51489600   -0.29065700
Ge    7.58359000    7.94273000   18.33973000     -1.028988   -0.24934900    0.52640000
Ge    6.44099000   12.52993000    6.41103000     -0.154638    0.32711900    0.50823700
Ge    8.32408000    8.61289000    1.85931000      0.238102   -0.35195600    0.19111300
Ge    8.69472000   18.84854000    7.68241000      0.737559   -0.06008800   -0.22817400
Ge    4.55443000   19.51488000   19.34813000      0.516452   -0.08251300    1.08960200
Ge   11.16676000   22.08367000    6.41020000     -0.041396   -1.13388500   -0.01674000
Ge    9.80879000    3.25290000   17.92537000     -0.372033    0.02971300    0.22535900
Ge   13.73139000    6.46605000    6.43454000     -0.232604    0.39042900   -0.66296600
Ge   14.19957000    8.33629000   19.38021000     -0.999729    0.40316100    0.06345500
Ge   15.59341000   12.83028000    6.30258000      0.970294   -0.71504500    0.60647200
Ge   16.94570000   14.35974000   15.55475000     -0.075213   -0.16278700    0.29965100
Ge   12.97371000   16.76715000    4.11108000      0.648017    0.87501400    1.34823000
Ge   15.57075000   17.58548000   15.92672000     -0.538946    0.25212200   -1.24273400
Ge   15.24686000    0.93906000    9.22838000      0.206610   -0.87357800    0.55275500
Ge   15.77336000    5.15293000   18.66838000      0.405455    0.12744800   -0.20188900
Ge   19.90631000    6.54570000    7.16233000      0.610420    0.44864900   -0.70750200
Ge   22.10662000    5.62216000   16.55136000      1.082130   -0.20383900   -0.63480800
Ge   20.22897000    9.48991000    8.01603000     -0.166553   -0.14117300    0.55016500
Ge   21.64216000   13.50189000   17.62345000     -0.039442   -0.12214400    0.56560800
Ge   18.71941000   18.38428000    6.99295000      0.066345    0.65321000    2.55631900
Ge   20.36050000   18.84279000   16.30128000      0.575928    0.45323100    0.43170400
Ge   19.91352000    0.37964000    5.35589000     -0.529195   -0.36910700   -0.29952200
Ge   19.76507000   21.70509000    0.55796000      0.244413    0.07724200   -0.55056600
Ge    5.55719000    2.32527000   11.16141000     -0.785919   -0.82704400    0.05444700
Ge    5.44713000    2.95585000   17.34599000     -0.132366    1.60777500    0.02252500
Ge    3.19300000    6.48351000    5.88941000      0.787620    1.01477700   -0.62752100
Ge    3.00422000   10.22881000   12.79575000      0.174015   -0.83426100   -0.73932100
Ge    2.81576000   17.34128000    6.75661000     -0.131542    0.17001100    0.12918600
Ge    1.54540000   13.96066000   15.48748000      0.080316    0.04958400    0.02178600
Ge   22.50181000   21.49722000   10.55635000      0.419826   -0.34239300    0.01782600
Ge    2.63827000   22.73425000   14.66632000      0.149526    1.82946900    1.57689000
Ge    9.82572000    2.72682000    3.07087000      0.367841    0.66951800   -0.54922100
Ge    9.30141000    1.03200000   16.30082000     -0.593480    1.29090600    0.67818500
Ge    8.81770000   10.70696000    5.73245000      0.253940   -0.39624500    0.11219400
Ge    7.68347000   10.24774000   15.87083000     -0.590432    0.03529600   -0.98138800
Ge    9.24520000   15.02109000    6.20966000      1.007977   -0.57552100    0.70650200
Ge   15.84924000   10.67941000   15.77086000     -0.155686   -0.08153100    0.70668700
Ge    8.14730000   21.22158000    4.94613000     -0.390101    0.52714300   -1.11117100
Ge    8.20769000   19.82969000   16.13689000      0.636182    0.11080400    0.14856500
Ge   14.78845000    1.53130000    6.40274000      0.096938    0.72494100   -2.08213600
Ge   12.99361000    2.61578000   15.94471000      1.161693    0.00841500   -0.03551200
Ge   14.83654000   10.27235000    4.54256000      1.628533   -0.63019000   -0.10447500
Ge   15.67126000    7.35190000   14.94520000      0.315502   -0.69487000    0.26418100
Ge   15.84869000   14.38652000    3.51423000     -0.534396   -0.40659800   -0.85501300
Ge   12.32718000   16.23731000   15.21273000      0.285796   -0.04969500    0.18721700
Ge   13.79436000   19.77471000   18.41821000      0.298150   -0.48509000   -0.46858600
Ge    9.95871000   21.52360000    0.93402000      0.337067   -0.87828700   -0.15243400
Ge   23.36950000    4.29429000    3.92620000     -0.383586    1.53797100   -0.43706400
Ge    0.52418000    2.54417000   14.97337000     -1.667321   -0.35606100    0.77776000
Ge   21.57052000    8.81183000    5.93969000      0.229654    0.09499200   -0.97607700
Ge   21.34339000   10.35060000   14.13841000     -0.471664   -0.09693300   -0.31937700
Ge   22.38271000   16.27780000    5.50543000     -0.564754   -0.54442600    0.08528200
Ge   19.56557000   14.11615000   12.69921000     -0.090122    0.05089100   -0.09133500
Ge   19.94672000   20.79921000    6.04367000     -0.270041    0.26869000   -0.58050100
Ge   21.16173000   23.42710000   17.46816000      0.137058    0.68295600    1.55309400
Ge    6.05597000    4.17726000    6.12711000     -0.416941    1.05131800   -0.55984300
Ge    2.81398000    2.72486000   14.06418000      0.482301    1.43337500   -0.18407500
Ge    5.25249000   11.03662000    3.65894000      0.643302   -0.13563200   -0.71577500
Ge    6.99793000    9.35197000   12.49535000     -0.589332   -0.18019900    0.05060800
Ge    5.17925000   15.11047000    0.69254000      0.622603   -0.21971500   -0.33170200
Ge    4.30943000   12.86472000   13.58764000      0.885532    2.11249500   -0.55276600
Ge    4.76336000   22.70809000    5.68171000     -0.131682   -0.45319500    0.04407400
Ge    5.87699000   21.12644000   14.45673000     -0.060944    1.28381500   -0.69425100
Ge   15.19178000    5.98514000    3.54741000     -0.933600   -0.05742800   -0.10639500
Ge   13.41091000    0.04397000   12.49573000     -0.358582   -0.20405800    1.01282600
Ge   10.61835000   10.24873000    1.08353000      0.400799   -0.33286500   -0.11425900
Ge   13.62409000    9.09176000   11.77932000     -0.225934   -0.11041400    0.12809200
Ge   10.96768000   13.09790000    1.86217000      0.523692   -0.27811900    0.02256400
Ge    8.53287000   17.22400000   11.59731000     -0.441481    0.43253200   -0.57921600
Ge   12.76576000   21.78164000    1.61774000     -0.966916    1.46814200   -0.18273500
Ge   11.20500000   22.87667000   14.18938000     -0.049410    0.61144900   -0.69936300
Ge    1.01443000    0.78409000   18.30427000      0.125155    0.11143400    1.42364400
Ge   12.20650000    5.63992000   12.73266000      0.690526    0.00882600   -0.91028300
Ge   17.36466000    7.06106000    0.18568000     -0.104619    0.03872400    0.46644600
Ge   12.13316000    6.76621000    8.63820000      1.191582    0.25254300    0.66481200
Ge   21.03082000   13.57465000    2.47278000     -1.657488    1.27941300    1.53596900
Ge   15.81920000   17.47035000    8.85878000      0.159587    1.65010300   -0.38499900
Ge   17.54679000   21.14697000    3.70832000      0.629198   -0.04976200   -0.55348800
Ge   18.98155000   21.54381000   13.45476000      0.540009   -0.80824800    0.55189100
Ge    0.69220000    0.94568000    3.27028000     -0.383965    0.21396900    0.00952800
Ge   22.64534000    1.97807000    9.77218000      0.407864   -0.57481400    0.02649600
Ge   23.30823000   10.51435000    2.27981000     -0.461444   -0.78779000   -0.07346100
Ge   23.39007000    8.92244000   12.95723000      0.299666   -0.00176300   -0.56841400
Ge    2.92195000   13.66101000    2.99594000      0.316233   -0.19202200   -0.84531400
Ge    0.52106000   16.81130000   11.36351000     -0.094684   -0.06577900   -0.44587500
Ge    0.09893000   21.75845000    4.61561000     -0.015222    1.00350900    0.48301900
Ge   20.73998000   17.61686000   11.72132000      0.820855    1.13376100   -0.24175100
Se    2.96077000   22.86583000    0.08339000     -0.377495    0.30384300   -0.65961500
Se    1.47428000    1.62345000    9.65950000     -0.640740   -0.15320900   -0.13331300
Se    1.47172000    6.57621000    1.48960000     -0.217211   -1.20480200    0.90292300
Se   23.24899000    9.77073000   10.65959000     -0.252666   -0.11757700    0.29442600
Se   22.04223000   12.22401000    0.96341000      0.859045   -0.95361700   -1.10019000
Se    0.13593000   13.97386000    8.68813000      0.094581   -0.65852600   -0.28834900
Se    1.53111000   19.78471000    4.37010000      0.789088   -0.68953400   -0.91532400
Se   23.02090000   19.02975000   11.54261000     -0.227415   -0.52813800    0.42973100
Se    7.00351000    1.92506000    2.60222000     -0.206129    0.43115300    0.60788300
Se    5.18293000    3.53953000   13.63295000     -0.070356   -0.20251800   -0.23598100
Se    9.68124000    4.67686000    5.32316000     -2.090968   -1.33413900    0.12054400
Se    8.10760000    9.11483000    9.98445000     -0.454744    0.50766900    0.20029800
Se    7.79314000   10.02245000   19.85023000      0.456227    0.96821000    0.32318400
Se    7.33151000   15.19582000   11.73267000     -0.616336   -0.42447000   -0.11499300
Se    6.91723000   20.24919000    2.60010000      0.917981   -0.56931900    0.18159700
Se    8.89925000   20.58477000   12.49257000      0.222890    1.87232700   -0.88995200
Se   12.18418000    0.54239000   19.83164000     -0.379637    0.39216400   -0.60481100
Se   12.77922000    2.28915000   11.92683000     -0.043402    0.48103000   -0.66494300
Se   11.62842000    8.81056000   18.55533000      0.651914    0.17880700    0.28524600
Se    9.75438000   10.28480000    8.07740000      0.432119    0.45560500   -1.18138200
Se   13.42557000   13.30286000    0.71891000     -0.794431    1.02820100    0.56156800
Se   11.80092000    8.92363000    9.89935000     -0.317959   -0.22170800    0.32677200
Se   15.00966000   16.96474000    0.66768000      0.184942    0.50605600    0.62656000
Se   11.50993000   20.22784000   12.13219000      0.746086   -0.29348900    0.28909100
Se   18.76256000    3.78384000    4.56772000      0.351914    0.81582500    0.22037400
Se   13.71728000    3.69622000   13.54254000      0.480505    0.37141800    0.79645100
Se   15.88436000    5.06681000   16.12849000     -0.403655    0.48258300    0.19817800
Se   20.01892000    3.42758000   13.48116000     -0.134044    0.30115900    0.37584900
Se   19.42761000    9.50976000    1.04299000     -0.049323   -0.24098100   -0.38374600
Se   16.21426000   19.27906000    6.98781000     -0.057544   -0.37200100   -0.11028800
Se   19.22433000   17.70591000    0.75496000      0.362629    0.45147000    0.02805700
Se   20.29325000   19.15775000    9.60897000     -0.451295   -0.46778700   -0.32304900
Se    3.48059000    0.12141000    3.87704000     -0.439014   -0.09049100    0.83324900
Se    2.78539000    6.21727000   11.39630000      0.258380   -1.05220300    0.10151900
Se    5.77123000   11.74147000    0.58630000     -0.129208   -0.06346300    0.19800200
Se    4.72095000   12.57833000   10.71729000      0.504537    1.25131300    0.69157600
Se    3.68479000   13.20349000    0.14794000      0.331081   -0.04271700    1.05359100
Se    3.33461000   17.12508000   10.84916000     -0.340620   -0.19246800    0.30081700
Se    6.11524000   21.74354000   19.08034000     -0.763633    0.05016800    0.31303800
Se    5.17014000   20.25496000   12.16419000      0.294937   -0.36936200   -0.71887900
Se   10.70759000    5.89744000    1.29799000     -0.492572   -0.34992900    2.14731300
Se    7.93108000    2.67881000   10.87123000      0.536562   -0.12685700    0.72601700
Se   10.67999000   12.26563000   18.61522000      1.097676   -1.01481000   -1.60351600
Se   10.26835000   11.70981000   11.45169000     -0.273017   -0.25792600    0.11385500
Se   11.64857000   15.78614000    2.51192000     -0.713987   -0.47741900   -1.05920300
Se   12.29314000   15.75982000   12.65176000      0.439801    0.23454300    0.45763300
Se   10.70986000   23.50328000   17.99762000      0.496780   -0.32013500    0.44856900
Se   10.16865000   23.29071000   11.38968000     -0.324474    0.10786800    1.05400900
Se   12.04799000    4.27914000   17.47733000      0.244695    0.06550300    0.14626000
Se   17.83503000    8.53608000    9.31750000     -0.225247   -0.96416500   -0.69956700
Se   16.97973000   10.28844000    2.78192000     -0.954262    0.20175700    0.29236700
Se   18.44651000   13.87171000   10.40483000     -0.518236   -0.27066200    0.20680800
Se   19.30857000   15.70098000    2.30252000      0.176723   -1.11575400   -0.52159800
Se   14.16054000   16.19297000    7.88593000     -0.859862   -1.06595300   -0.00891700
Se   17.89735000   23.53569000    0.22065000     -0.191708   -0.21194900    0.15213600
Se   17.03334000    0.88676000   10.72767000      0.403392    0.13073500   -0.07768200
Se    0.78267000    2.43130000    0.75426000     -0.047168    0.07734100    0.82071400
Se   22.06682000    4.39013000   10.00672000      0.322955   -0.49954700    0.70466100
Se   21.76235000    4.79614000    2.02418000      0.770154    0.32331500    0.59445500
Se   21.15404000   12.11981000   12.32732000     -0.067386   -0.96290800   -0.18985500
Se   22.84964000   14.12195000    4.02903000      0.933380    0.60820900    0.18887200
Se   21.61181000   15.31911000   11.35446000     -0.390289    0.40272900   -0.25082200
Se   22.92263000   21.80070000    2.36167000      0.296790   -0.03154600   -0.27099300
Se   21.53189000   23.60051000   15.11486000      0.321598    0.40233000   -0.56832200
Se    4.21247000    3.68068000    9.52310000      0.004414    0.01112600   -0.14544500
Se    4.57449000    5.80646000   18.49319000     -0.851721    0.83489300    0.54860200
Se    4.49030000   11.78115000    8.52636000     -0.690393    0.16210400   -0.81081400
Se    4.30307000    6.67378000   15.10014000      0.602585    0.58940000   -0.47546100
Se    6.88548000   19.59436000    6.18413000     -1.167040   -0.40553000   -0.04664100
Se   22.02773000   15.32200000   19.39937000     -0.242555   -0.06087900   -0.16939800
Se    1.21590000   21.82884000   11.03691000      0.345712    0.39250400   -0.66144200
Se    2.49900000   19.90766000   18.18499000     -0.309837    0.00291300   -0.78162800
Se    7.24856000    3.08156000    7.83302000      0.808978   -0.48082900    0.91953500
Se    5.58347000    4.07618000   19.71605000      0.869383    0.10490100   -0.07419700
Se    6.36196000    9.90184000    5.98121000      0.260749    0.44938500   -0.18107800
Se    4.03931000    9.55214000   19.22185000     -0.192990   -0.91688500   -0.05453500
Se    6.98427000   18.34045000    9.34282000     -1.043099   -0.53955600    1.20368900
Se    6.08105000   15.33357000   18.20517000      0.007582   -0.15088000    0.57235000
Se    9.38281000   20.94312000    9.10458000     -0.175885   -0.03379800   -0.45669100
Se    9.13738000    3.18232000    0.41798000     -0.116928   -0.21863900    0.16374200
Se   14.48720000    2.92355000    8.32616000     -0.155954    0.62624200    0.80306400
Se    8.55846000    5.50649000   17.46344000     -0.179838   -1.24629900   -0.49378600
Se   10.39266000    5.07977000    8.66312000      0.290172    0.46454000   -0.12231700
Se   18.18211000   11.15811000   16.37036000      1.004416    0.58837400    0.00412600
Se   13.17318000   19.64980000    8.26584000     -0.358257    0.03371300    0.30620000
Se   15.35723000   15.90453000   17.55345000     -0.163060   -0.39497700    0.98327800
Se   15.71963000   23.14671000    7.24823000      0.272273   -0.37186600    0.58368600
Se   18.95890000    3.38509000   16.73375000      0.422985   -0.90725200    0.79660400
Se   17.79782000    4.22230000   10.81140000     -0.024439   -0.25475700    0.47257100
Se   23.27250000    3.37152000   17.25311000      0.054307    0.63366000   -0.68114100
Se   19.16112000    9.06016000   13.05377000     -0.473108   -0.46006300    0.07285000
Se   20.27974000    9.78492000   16.81427000     -0.622536    0.73695100   -0.86490200
Se   15.64382000   18.85120000   10.87205000      0.048195   -0.47666200    0.65988300
Se   18.61139000   14.69239000   17.51884000      1.091660   -0.86607000    0.21735800
Se   18.57556000   23.02828000    7.98558000     -0.293603   -0.07351800   -0.82340300
Se   18.04775000   19.98510000    1.05203000     -0.710050    0.34804400    0.43457000
Se    4.63231000   22.05603000    9.03438000      0.116343    0.05811400   -0.12534900
Se    3.31072000    3.17568000    0.85050000     -0.391927   -0.56198500   -0.23175700
Se    7.04531000    6.96267000   10.11082000     -0.972352   -0.38180300   -0.16351900
Se    4.80945000    7.58373000    0.70190000      0.245663    0.14903900   -0.44906000
Se    5.62992000   16.07941000    6.78664000     -0.877567   -0.14122200   -0.76841100
Se    6.94693000   12.02600000   17.24196000      0.839843    0.30282600    0.36280300
Se    2.73250000   19.25142000    8.52347000     -0.042808   -0.49487600    0.07568700
Se   22.08286000   19.65675000    1.11828000      0.431793    0.15114000   -0.30685200
Se    9.00678000   23.34393000    7.03208000     -0.549897    0.87895500   -0.03592900
Se   12.13549000    4.24311000    2.40858000     -0.218108   -0.05234700    0.03268700
Se   10.92734000    2.52175000    9.16334000     -0.344768   -1.27393300    0.33848500
Se    8.29556000    6.45062000    0.36108000      0.064263    0.39956500    0.10780900
Se   10.89654000   13.96380000    7.87912000      0.190574   -0.86817700   -0.77341400
Se    9.28096000   13.41526000    0.02226000     -1.547233    1.20780100    2.00404700
Se   13.77450000   23.02811000   10.30701000     -0.359432   -0.64669100   -0.87534700
Se   14.92474000   12.56334000   17.17386000      0.243135    0.40932800   -1.02301200
Se   18.12222000    3.16776000    7.25622000      0.219988   -0.31494700    0.83477800
Se   17.25752000    4.64538000    1.59978000     -1.911015   -0.63115600    0.87465500
Se   15.44169000    8.12813000    8.93564000     -0.045090   -0.37850900    0.19536100
Se   15.51482000    8.68752000   17.20904000     -0.093051   -0.33524500   -0.09818700
Se   15.20911000   14.02767000    8.45276000     -0.723495   -0.09322200   -0.20702200
Se   16.15794000   13.03781000   19.33105000      0.981141   -0.74724400    1.12306700
Se   13.77988000   20.06969000    3.05477000      0.199097   -0.68369600    0.91891200
Se   19.90110000   21.52688000   17.73149000     -1.012080   -1.08977700    0.46649500
Se   21.68432000    0.91526000    7.40732000      0.673874    0.69906600    0.50146200
Se    0.42653000    0.09650000   15.94660000      0.299574    0.28123100   -0.83816900
Se   21.20729000    7.45486000    9.23090000     -0.021580    0.22330600   -0.05603700
Se   22.72356000    8.07366000   16.79151000      0.592396   -0.69909300   -0.35428900
Se    0.16994000   11.04577000    7.67562000     -0.966512   -0.02076300    0.79603600
Se   22.20629000    8.48379000   19.01893000      0.029473    0.04178500    0.78150400
Se   21.57910000   17.34961000    7.92089000     -1.035802    0.31969300    0.69191500
Se   18.81299000   17.68253000   18.24025000      0.038694    0.30649800    0.24832100
Se    1.03464000   23.09282000    8.86513000      0.208724   -0.00440700    1.08544900
Se    3.06816000    0.66538000   12.84135000      0.554728   -0.26068400   -0.66229200
Se    2.59030000    8.04777000    8.41652000     -0.497228    0.42580000   -0.30853900
Se    2.44160000    8.22123000   17.80919000      0.078887    0.38504300    0.58952900
Se    1.14163000   16.02346000    8.71992000      0.358381    1.05917000    0.06762600
Se    1.05150000   13.10295000   17.87271000     -0.488777   -0.41941900    0.14091100
Se    3.57828000   19.63785000    5.56009000     -0.034609    0.31292500    0.03269700
Se   23.17670000   19.38985000   16.58957000     -0.446490    0.17943900    0.57516500
Se    6.78870000   23.52109000    4.67211000      0.494897    0.00799200   -0.54043700
Se    6.18520000    0.92874000   17.97502000      0.015807   -1.37973800    0.31905500
Se   11.28806000    6.07442000    4.98230000      2.111503    2.01116700   -0.51513500
Se    6.45802000    7.97536000   15.83104000     -0.448979   -0.34711700   -0.48865400
Se    7.33383000   14.93015000    7.83956000      0.802314   -0.09096100    0.42184000
Se    8.77327000   18.67139000   13.61385000     -0.499993   -1.70614800    0.79585500
Se    7.65683000   16.72078000    3.15687000     -0.293719   -1.25593200   -0.53784900
Se    9.50427000   16.09537000   15.07667000     -0.418377    0.04600100    0.93205600
Se   14.15272000   21.68187000    4.89425000      1.249786    0.01064000   -0.00007600
Se   14.11446000   22.60061000   16.01175000     -0.712917    1.13905900    0.11660700
Se   13.49889000    8.07368000    4.04201000      0.176705   -0.31277900    0.65912200
Se    9.16444000    7.92700000   13.40169000      0.443869   -0.15418600    2.27055800
Se   13.79313000   12.53237000    4.66021000      0.091148    0.30368000   -0.01563100
Se   14.57588000   15.18474000   14.67700000     -0.028721    0.77512900   -0.12342800
Se   11.72393000   19.29021000    4.12948000      0.413259   -0.51422800   -0.16250600
Se   16.12345000   20.62230000   17.62451000      0.431431   -0.83117900   -0.57454300
Se   17.90440000    1.63727000    4.37626000     -0.097977   -0.67649700    0.05229400
Se   19.52387000    1.69992000   18.42036000     -0.020223    0.04331000   -0.98588700
Se   19.51667000    8.07271000    4.62286000      0.889165   -0.42788100   -0.49272100
Se   19.91564000    5.55555000   17.28722000     -0.994865    0.19157600    0.25707100
Se   20.06478000   12.01295000    4.19270000      0.148852    0.07281800   -0.06759700
Se   16.72686000   12.58163000   12.07157000      0.095092    0.25956800    0.37743400
Se   19.39990000   18.28173000    4.74064000      0.081423    0.10127700   -1.93678200
Se   21.18626000   20.35292000   14.40193000     -1.283157    0.44328000   -0.60190400
Se    5.50036000    6.49934000    6.80487000      0.159755   -0.59167900    0.09033900
Se    3.24793000    3.71594000   16.90250000     -0.079442   -0.07664000   -0.10916100
Se    3.31862000    9.60727000    3.22336000     -0.684113    0.30299900   -0.03075700
Se    4.89246000   10.74162000   14.38356000      0.296708   -1.28182100    0.61100800
Se    4.54702000   13.99598000    5.48475000      0.055066    0.39432700    0.06636000
Se    1.33397000   16.93426000   18.83609000      1.996789    0.70955600   -0.23607500
Se    1.74960000    0.04873000    5.71289000      0.279996   -0.14506200   -0.72203400
Se    3.14445000   20.95296000   13.40344000      0.609757   -2.52867400   -0.68277500
Se   12.42894000    0.46152000    6.28024000      0.390103    0.43034900    0.20956000
Se    6.80617000    4.53567000   15.92805000      0.640804   -0.19894700    0.48364300
Se   11.60637000   11.58476000    7.08879000     -0.927380    1.30440500    0.55458700
Se   11.04498000   14.57032000   17.58913000      0.277475   -0.57376600   -1.13180900
Se   10.26568000   17.38050000    9.81517000     -0.301973   -2.39003800   -0.00887100
Se   10.88082000   19.99635000   18.54382000      1.141319    0.04434900    0.36637400
Se   10.78155000   21.68576000    3.91016000     -0.721200    0.06794600   -0.40212500
Se    8.52985000   20.92583000   18.53880000     -1.264163    0.18414900    0.10465900
Se   15.46055000    4.89316000    5.84933000     -0.202809    0.28316200    0.04559000
Se   13.90471000    6.14654000    0.45853000     -0.255568   -0.20477400   -0.54404500
Se   16.53377000   10.37547000    6.61938000     -1.392564    1.32231800   -0.47165300
Se   18.14869000    6.85777000   13.54443000      0.172949    0.94727100   -0.00520500
Se   17.33058000   14.21901000    5.36493000      0.304397   -0.10478500    0.34599300
Se   12.51371000   18.51640000   15.64578000      0.686904    0.07553700    0.27426900
Se   15.66072000   23.18442000    3.66722000     -0.169858   -0.63958300    0.39828000
Se   17.59860000    3.44453000   13.33925000      0.338921    0.43209400   -0.38846600
Se   21.89716000    4.70618000    6.58765000     -0.088672    0.76831200   -0.61506700
Se   22.54676000    5.57416000   14.11101000      0.606540   -0.61618200   -0.11347600
Se   17.53757000   10.36538000   10.96847000     -0.170493    0.26700700    0.61063800
Se   22.09847000   14.51989000   15.45792000     -0.056310   -1.21396900   -0.75721100
Se   17.68183000   16.33651000    7.92655000      1.270988   -1.07764100    0.04563700
Se   22.05836000   16.80778000   15.80698000      0.642044    1.12433800    0.46318600
Se   20.90906000   22.72962000    8.64010000      0.271823   -0.21379200   -0.21726700
Se   22.86985000   23.00885000   19.38987000      0.063975    0.70870200   -1.14147300
Se    4.36121000    2.76890000    7.26195000     -0.501333    0.16098600    0.33483700
Se    5.02928000    0.28407000   14.78457000     -0.941287   -0.39576400   -0.06702500
Se    4.18269000    5.28555000    3.38740000     -0.730248    0.46015700    0.22017500
Se    4.82481000    8.72111000   11.06768000     -1.021167    0.51383300    0.59213600
Se    1.59253000   11.45215000    3.53373000      0.604352   -0.00786700    0.27334900
Se    4.64240000   14.09420000   15.97821000     -1.254936    0.98046200   -1.11101200
Se    3.86449000   17.02772000    1.18846000      0.283125    0.05652000    0.73504700
Se    3.27478000   16.74945000   13.24587000      0.922383    0.14940900    0.16762700
Se   10.85457000    0.53886000    1.97227000      0.039366    0.31758800    0.30611200
Se   11.03138000    2.02585000   14.78377000     -0.750991   -1.25815800   -0.70995500
Se    9.92927000    9.56980000    3.77729000     -0.448411   -0.10455400   -0.48980700
Se    9.24180000    8.73228000   16.78181000      1.073523   -0.01239900   -0.12685300
Se    8.80260000   13.09245000    4.79510000     -0.292501   -0.26638200   -0.41505200
Se   12.22874000   11.18134000   12.58042000      0.648651    0.09896100    0.13045000
Se    9.00916000   19.03974000    1.69374000     -0.599070    0.85773900    0.26403800
Se    9.14316000   22.27890000   15.63913000     -0.221844   -0.39253800   -0.83595600
Se   19.17579000    4.81239000    8.62414000     -0.930059   -0.88489000    0.08552100
Se   14.95612000    1.00410000   17.16412000     -0.449670   -0.81253000   -0.09491600
Se   16.91199000    7.64816000    3.39204000      0.988802    0.74320900   -0.62093900
Se   13.09881000    7.49011000   14.07103000      0.201990    0.41197500   -0.12062200
Se   17.45558000   12.92637000    2.02006000     -0.483668   -0.37845100   -0.21147400
Se   19.34950000   18.32855000   13.98190000     -0.131889   -0.26174500   -0.20191700
Se   15.47979000   16.98829000    3.15347000     -0.132501    0.01169000   -0.24159200
Se   17.01067000   20.12603000   14.12394000      0.700464    0.91203900   -0.26049600
Se   22.67292000    2.25447000    4.70470000     -0.237879   -1.74339500   -0.09350900
Se   22.05958000    0.50487000   11.82803000      0.814314    0.59375900   -0.55822300
Se    0.12743000    7.87281000    5.53212000     -0.193161    0.06825700    0.40815900
Se   21.60021000    7.06116000   12.54897000      0.274736    0.04437400    0.35908000
Se    0.28149000   17.96629000    6.27079000      1.829819   -0.31553100    0.34009000
Se    1.02503000   11.55774000   14.38291000     -0.614409   -0.19601300    0.68846000
Se   22.34954000   20.39228000    5.98592000      0.021136    0.68729100    0.53678600
Se   19.97278000   21.55848000   11.16518000     -1.050023   -0.61334500    0.41048100
Se    2.42871000    4.32678000    6.56215000     -0.883116   -1.12487300    0.25222200
Se    1.50300000    4.26520000   12.05840000      0.420041   -0.45393200    0.24085500
Se   22.18669000   10.93298000    4.73089000     -0.358670    0.32213700   -0.37192000
Se    2.09523000    7.71577000   13.07263000     -0.719466    0.08134400    1.05345100
Se    0.93807000   15.00766000    2.16971000     -0.140706   -0.16379100    0.16327100
Se    1.14376000   16.31895000   13.99987000     -0.294321   -0.00656700    0.17487000
Se    3.08447000   19.76075000    2.21605000     -0.503676    0.24468900   -0.68709300
Se    6.63924000   17.57147000   18.56697000     -1.355469    0.09314200   -0.42386900
Se   11.24376000    2.55077000    5.74655000     -0.383444    0.20658500   -0.95462400
Se    8.07612000    2.15764000   13.37466000      0.052156    0.20663600   -0.68443300
Se    6.20059000    8.61743000    3.07999000     -0.422426   -0.06175700    0.07326000
Se    8.97526000   10.60301000   13.51384000      0.215067    0.84242800    0.06295200
Se    7.11166000   14.18134000    2.08412000     -0.836573    1.17194700    0.03615400
Se   10.13097000   14.98001000   13.15823000     -0.214240   -0.96789900   -1.05781900
Se    6.25957000   23.57446000    9.85985000     -0.051749    0.19258000    0.31244100
Se    5.80689000   19.99311000   16.48825000     -0.826773   -0.63176300   -0.01906000
Se   13.27885000    0.47256000    2.85085000     -0.312394   -0.80554400   -0.89948200
Se    9.77144000    5.27651000   13.26580000     -0.491691   -0.10339000    0.10788000
Se   13.76741000    9.99073000    1.17944000     -0.276909    0.39300800   -0.12700200
Se   15.18180000   10.95655000   13.52612000     -0.034698    0.16936600   -0.39271200
Se   10.22934000   17.09044000    5.64022000     -0.020611   -0.27074100    0.35100300
Se   13.37420000   18.48077000   11.86372000      0.598032    0.05180300   -0.03769300
Se   14.69939000   21.26218000    0.23944000      0.473621    0.79664700    0.62264500
Se   15.22201000   22.45390000   14.05369000      0.587524   -0.44062000   -0.61676800
Se   18.95952000    5.15895000    0.22641000      1.391731    0.53064500   -1.16840200
Se   14.07238000    6.08739000   10.28821000     -0.395342    0.68323400   -0.59042400
Se   20.52479000    7.80798000    2.28034000     -0.327841    0.38770300    0.65459800
Se    2.02182000   12.64630000   12.54490000     -0.413936    0.77266200   -0.46079100
Se   21.61052000   17.97874000    3.89692000     -0.189549   -0.36469100   -0.37394900
Se   18.10506000   15.97143000   14.03110000     -0.248224    0.37464400   -0.28109200
Se   19.99475000   22.07006000    3.47464000     -1.011806    0.20049500    1.12410400
Se   19.19519000    0.14161000   14.42680000     -0.503232   -0.02636000   -0.38559100
