384
23.69824000 23.69824000 19.89960000
Ge    5.39541000    5.91589000   12.60312000     -0.753232    0.73671500    0.42761500
Ge    6.47553000    4.02550000    3.53129000      0.022820    0.76598200    0.34169100
Ge    1.81247000   12.92937000    7.20721000     -0.658482   -0.47087100    0.38667400
Ge    9.66109000   13.44754000   15.80630000      0.344105    0.66705200    0.19094700
Ge    5.45664000   15.33717000    9.98729000      0.029037   -0.43717400    0.23526700
Ge    9.00802000   18.48822000   19.02753000      0.395586    0.22756300   -0.01461300
Ge    7.66984000   23.55359000   12.57338000      0.430393   -1.79034200   -0.90734400
Ge    4.59414000    0.84771000    0.74123000      1.768147   -0.88930700   -0.15351300
Ge    8.85512000    5.42223000   10.52519000      0.528493   -0.82650800    0.49437300
Ge   11.90975000    6.51577000   19.08553000     -1.392555   -1.20476100    0.13065600
Ge    9.90908000    7.63300000   11.07318000     -0.461367    0.88909100   -0.04054700
Ge   13.25076000   11.62995000   18.75487000      0.171112   -0.31650100    0.55709900
Ge   11.23566000   19.81916000   10.09049000      0.454682   -0.60613600   -0.94554500
Ge   12.79497000   15.93110000    0.32935000      0.169537   -0.67801600   -2.91725200
Ge   10.88771000   23.42672000    8.56095000      0.156079    0.21070900    1.51492100
Ge   16.05296000   22.89018000   18.63088000      1.339562   -0.64318200    0.34481900
Ge   20.13815000    4.91775000   11.45514000     -0.080089    0.40838800    1.02266800
Ge   19.66463000    8.29340000   18.76414000      0.812471   -0.51754200   -0.66936300
Ge   19.70437000   11.43596000   10.38308000      0.347663    0.14123700   -0.15099100
Ge   18.72687000   12.41365000   18.51899000      0.175601    0.13161200    1.02458100
Ge   15.80913000   20.80664000    8.91371000     -1.083412   -0.15663400   -0.13792000
Ge   17.01561000   15.78459000   19.42937000      1.076114   -0.14130600    0.07766700
Ge   19.69420000    1.36727000   11.92062000      0.366002   -0.56677900    0.97354300
Ge   19.99619000    3.40326000    2.51138000     -0.170503    0.17135100   -0.09983600
Ge   23.31301000    6.21785000    8.01541000      0.430822   -0.63793700   -1.13776900
Ge    2.38766000    3.82784000    3.73843000     -1.063502   -0.83301200    0.44691800
Ge    1.74413000   10.29621000    9.68932000     -0.483387    0.22843100    0.28897600
Ge    1.63374000    8.61655000    0.20249000     -0.808211   -0.63321300    0.83510800
Ge   20.34630000   15.31957000    8.52596000      0.050101    0.18912000    0.15709800
Ge    0.64135000   14.73543000   19.49318000     -0.149784   -0.32597100   -0.05597000
Ge   19.26602000    1.48638000    9.26329000     -1.015964   -0.43824900   -0.69076800
Ge    0.84095000   20.66073000    0.53879000      0.329428   -0.16855100    0.10623700
Ge    4.74147000    9.17485000    8.78401000      1.936451    0.47542900   -1.23670500
Ge    1.70457000    4.53613000   19.67888000     -0.056794    0.24752500    0.44922700
Ge    2.01884000    9.60854000    6.38439000     -0.775921   -0.44236800   -0.54267100
Ge    4.55322000   11.60126000   16.91010000      0.045649    0.57804600   -0.60097300
Ge    5.65092000   17.80019000    3.95842000     -0.042152    0.11342600   -0.13370800
Ge   22.95792000   17.60863000   18.06412000      0.863662   -1.24420400    2.91410600
Ge    5.00494000   19.83085000    9.84743000     -0.699562   -0.67629900   -0.82036600
Ge    3.75026000   22.17113000   17.40429000      0.422039   -0.70447400    0.61934700
Ge    9.49049000    2.01570000    7.18594000     -0.693340    1.07212300    0.85883800
Ge    7.73440000    7.86874000   18.49296000     -0.876687    1.19954200   -1.67967300
Ge    6.34178000   12.48262000    6.38364000      0.365826    0.79759400    0.96655000
Ge    8.19644000    8.44294000    1.88547000      0.117858    0.43339900    0.34607200
Ge    8.81039000   18.67527000    7.76920000      0.256916    0.04730100   -0.04271300
Ge    4.49862000   19.68032000   19.52883000     -0.351245   -0.73027600    0.57544300
Ge   11.33129000   21.94981000    6.39474000     -0.371789   -1.13976600    0.20994400
Ge    9.68862000    3.45760000   17.89818000      0.442138   -1.27112500    0.69217900
Ge   13.58133000    6.45904000    6.43543000     -0.710632    0.52034700   -0.37872800
Ge   14.21164000    8.42711000   19.64541000     -0.097506    0.58524500   -0.76119400
Ge   15.77172000   12.69553000    6.42200000     -0.596930    3.46648100   -0.74616000
Ge   16.95968000   14.01883000   15.52498000     -0.139372    0.48588200    0.07287600
Ge   13.08318000   16.89532000    3.98103000     -0.648402   -0.13485800    0.97799400
Ge   15.58631000   17.85048000   15.75284000     -0.807855   -0.28974800   -0.80803400
Ge   15.21227000    1.03441000    9.16752000     -0.922051   -0.24941600    0.13839700
Ge   15.78322000    5.11845000   18.75714000     -0.332411   -0.39904700   -0.12734000
Ge   20.20413000    6.69552000    7.21987000     -0.942248   -0.99732900   -0.58596000
Ge   22.24732000    5.54816000   16.45443000     -0.611351    0.75911500    0.99206300
Ge   20.27417000    9.46910000    8.11411000      0.252583   -0.44330500    0.10593000
Ge   21.63406000   13.67607000   17.62096000     -0.302942   -0.54096600    0.86667600
Ge   18.63456000   18.52461000    7.15009000      0.720021    0.95541200   -0.09366200
Ge   20.44202000   19.03150000   16.37318000      0.010624    0.41553800    0.25661400
Ge   19.83860000    0.36994000    5.43718000     -0.248304    0.44671300    0.23860900
Ge   19.58803000   21.92547000    0.49565000      1.422310   -0.13571800   -0.19898200
Ge    5.62837000    2.26928000   11.10864000     -1.757175    0.22165700    0.46533100
Ge    5.26247000    2.94517000   17.46702000      0.414641   -0.08343900   -0.45741200
Ge    3.31508000    6.68852000    5.99235000     -0.234261   -1.07155900   -0.49585500
Ge    2.99308000   10.19109000   12.55793000      0.396944    0.06953800    0.08872400
Ge    2.84895000   17.44066000    6.72836000      0.146125    0.09252600    0.15052100
Ge    1.68589000   13.90939000   15.58171000     -0.290438    0.07060300   -0.24135900
Ge   22.43245000   21.74105000   10.64791000      0.511473   -0.00259200    0.27817300
Ge    2.67600000   22.79378000   14.83015000     -1.166263   -0.68844200   -0.67936700
Ge    9.84305000    3.00197000    2.95718000      0.368296   -0.13619100   -0.29819700
Ge    9.53029000    0.92577000   16.44821000     -1.467284    2.65884700   -0.92309100
Ge    8.73391000   10.70678000    5.86181000      0.302030   -0.34017300   -2.08268000
Ge    7.73940000   10.30921000   15.76152000     -0.355843   -1.26118200    0.24830000
Ge    9.23434000   14.91318000    6.26590000      0.113009    0.79802000    0.79567500
Ge   16.06112000   10.50312000   15.98365000     -1.162545   -0.23407300   -0.32696800
Ge    8.23857000   21.19342000    4.93975000     -0.399972    0.56004900   -0.62053900
Ge    8.05199000   19.73798000   16.16687000      0.343176    0.12942600    0.47309800
Ge   14.59129000    1.60495000    6.18002000      0.454792    0.98922600   -0.74582200
Ge   13.14633000    2.62644000   16.13936000     -0.459903    0.46142200   -0.83226800
Ge   14.86513000   10.24384000    4.58507000      0.668454    0.86584700   -0.37512600
Ge   15.64144000    7.18469000   14.84775000      0.001282    0.00901400    0.74147500
Ge   15.59783000   14.53247000    3.42043000      1.179976   -1.79960100    0.24261100
Ge   12.30838000   16.31442000   15.29674000     -0.095992   -0.52516100   -0.16740500
Ge   13.90397000   19.78004000   18.27627000      0.280636   -0.41792300   -0.44481600
Ge   10.13410000   21.55713000    0.98415000     -0.332301   -0.46237500   -0.47991300
Ge   23.29230000    4.43698000    3.95534000      0.096582   -0.28714100    0.85371900
Ge    0.24718000    2.56420000   14.65829000     -0.611264   -0.34286900   -0.09765900
Ge   21.48661000    8.91022000    5.80525000      0.591687   -0.73355900   -0.08915100
Ge   21.22664000   10.46272000   14.11894000      0.226620   -0.30894300    0.01511600
Ge   22.31442000   16.11291000    5.66339000      0.044386    0.99305500   -0.41163300
Ge   19.62509000   14.01608000   12.67525000     -0.634070    1.05962100    0.52340500
Ge   19.96309000   20.91410000    5.93320000     -0.379431   -0.50465300    0.04316200
Ge   21.13169000   23.48013000   17.52280000     -0.328918    0.02794900    0.25497900
Ge    6.04427000    4.15501000    6.17061000      0.672203    0.22104700   -0.53979900
Ge    2.71729000    2.77461000   14.10168000      0.680943    0.56720600   -0.61380600
Ge    5.36341000   11.07424000    3.27710000      0.661784    0.39181300   -0.37889300
Ge    6.94398000    9.26525000   12.58320000      0.007162   -0.68026700    0.04165400
Ge    5.07252000   15.09915000    0.45070000     -0.410602    0.48648300    1.39420800
Ge    4.19374000   13.17172000   13.48313000      0.812545    0.03696900    0.02260400
Ge    4.74923000   22.76801000    5.76640000      0.941729   -0.48958700    0.03797100
Ge    5.85592000   21.44167000   14.51029000     -0.352088   -0.04809600    0.21009600
Ge   15.18259000    5.90050000    3.60829000     -0.136914    0.51744800   -0.57821400
Ge   13.42626000    0.04072000   12.60227000     -0.290547   -0.13353500   -0.46890300
Ge   10.74718000   10.20201000    1.15639000      0.141542    0.22430600    0.09228300
Ge   13.66138000    9.02881000   11.71961000     -0.102911    0.48397100   -0.00903900
Ge   11.05540000   12.98114000    1.95907000      0.215890    0.06898600   -0.49605700
Ge    8.30768000   17.39418000   11.47050000     -1.358800   -0.28595400    0.71864700
Ge   12.71279000   21.84881000    1.58680000      0.150813    0.94629300   -0.15865000
Ge   11.15148000   22.85085000   14.32330000      0.808055    0.88866700   -1.27718200
Ge    0.93961000    0.72492000   18.41671000      0.740477    0.76823700    1.11540600
Ge   12.47058000    5.49114000   12.46841000     -0.922937    1.29283500   -0.10441000
Ge   17.20525000    6.65689000    0.34452000      0.124789    0.26429500    1.03927600
Ge   12.18610000    6.94452000    8.71040000      1.243363   -0.69054700    0.18182500
Ge   20.99972000   13.83268000    2.60545000     -0.489807   -1.17690400   -0.03634300
Ge   15.89559000   17.43826000    8.83806000     -0.332683    1.12654700   -0.55117300
Ge   17.65311000   21.08752000    3.73825000      0.233690   -0.99803200   -0.34236800
Ge   19.15376000   21.35611000   13.30459000     -0.756575    0.05198200    1.78502400
Ge    0.64158000    0.76999000    3.49470000     -0.409076   -0.01992800   -0.48767000
Ge   22.99452000    1.94686000    9.82421000     -2.766530   -0.04222600    0.05714500
Ge   23.39958000   10.66278000    2.03854000     -0.526200   -0.26938800   -0.10986000
Ge   23.30418000    8.95141000   13.13407000      0.591615    0.39496700   -0.58908500
Ge    3.08832000   13.57177000    2.84353000     -0.466529    0.67859800   -0.41684400
Ge    0.51810000   16.80634000   11.38474000      0.597191   -1.56389700   -0.28869300
Ge    0.04785000   21.87096000    4.74950000     -0.230559    0.47831900   -0.27754200
Ge   20.88414000   18.03801000   11.76509000     -0.770087   -1.45054500   -0.36349900
Se    3.07351000   22.93223000   19.74517000     -1.505605   -0.55914000   -0.49394400
Se    1.50466000    1.67477000    9.68318000      2.039035   -0.59627700   -0.39991800
Se    1.53519000    6.40424000    1.79255000     -0.107463   -0.33053400   -0.82512400
Se   23.25885000    9.67336000   10.67646000     -0.136158    0.11636800    0.59039900
Se   22.04022000   12.35279000    0.69107000      0.024467    0.05379400    1.30550500
Se    0.08095000   14.16527000    8.62313000      0.246580   -0.41136400   -0.44668000
Se    1.49111000   19.82434000    4.44357000      0.215304   -0.47377100   -0.57911600
Se   23.03398000   18.82683000   11.45140000      0.919538    1.74913200    0.13937000
Se    6.96430000    1.81061000    2.78235000     -0.191421   -0.45993800    0.13563700
Se    5.35029000    3.70796000   13.65361000     -0.712275   -0.67662700   -0.33859400
Se    9.43159000    4.48329000    5.28721000      0.482791    0.94687500   -0.36999900
Se    8.00406000    9.24733000   10.07577000     -0.140196   -0.87668500    0.91994300
Se    7.85713000    9.96594000   19.86916000      0.565125    0.61444400    0.65534500
Se    7.11467000   15.21683000   11.85939000      0.028511    0.44442400   -0.24164300
Se    7.01649000   20.19928000    2.80896000     -0.711817    0.24173200    0.03151500
Se    8.79409000   20.68912000   12.45351000      0.449293   -0.40848400    0.39023500
Se   12.10649000    0.67999000   19.73239000      0.183684    0.25788000   -1.05706300
Se   12.88451000    2.31412000   11.76195000      0.632405    0.73849300    0.68325900
Se   11.55679000    8.84377000   18.63436000      0.763491    0.58328600    0.17644300
Se    9.36579000   10.50474000    8.03464000     -0.004297   -0.19317300    1.44570600
Se   13.42965000   13.38778000    0.61806000     -0.499439    0.47592700    0.50203200
Se   11.52966000    8.97294000    9.78760000      0.632214    0.52920200    0.48546100
Se   14.90299000   16.96040000    0.50416000      0.271311    0.88834500    0.23437800
Se   11.57742000   20.46433000   12.40366000      0.174203   -0.72017300   -0.20110000
Se   18.33615000    3.97548000    4.76819000      0.279842   -0.70929000   -0.61324800
Se   13.82275000    3.96139000   13.63923000      0.475199   -1.67913100    0.13155200
Se   15.55407000    5.08423000   16.28208000     -0.071787   -0.25783100   -0.22129200
Se   20.05785000    3.37222000   13.55739000     -0.732980    0.22110400   -0.81129300
Se   19.56088000    9.52513000    0.89465000     -0.074389    0.31034100    1.19072100
Se   16.22012000   19.27314000    6.80481000     -0.193954   -0.05570900    0.75369900
Se   19.24553000   17.89814000    0.70211000     -0.259192    0.79363700   -0.50372900
Se   20.24292000   19.15856000    9.50534000     -0.389209   -0.29095600   -0.19270900
Se    3.56577000   23.62308000    3.92760000     -0.244965    0.27293500   -0.59360300
Se    2.70190000    6.30429000   11.14362000      0.911378    0.52769700    0.55978900
Se    5.75087000   11.78535000    0.56445000     -0.165096   -0.59202300    0.12621900
Se    4.83875000   12.74119000   10.80043000     -0.011436    0.71297200    0.03976300
Se    3.58256000   13.01290000    0.32980000      0.247769    0.27486300    0.13326300
Se    3.35281000   16.99625000   10.97339000     -0.264063    0.18381200    0.51450900
Se    6.08138000   21.75520000   19.32767000     -0.206030    0.15229000    0.04319500
Se    5.28523000   20.18159000   12.16560000      0.008095   -0.09182000    0.73231400
Se   10.56937000    5.73287000    1.46955000      0.923300    0.07491800    0.12854300
Se    7.96899000    2.41573000   10.78641000      0.748891    0.31579200    0.05034700
Se   10.76486000   12.02075000   18.46187000     -0.577797    0.77640100    0.17343100
Se   10.12102000   11.83511000   11.28031000      1.049999   -0.37678600    0.67310200
Se   11.75126000   15.76635000    2.30181000     -1.286121   -0.08847300    2.09296400
Se   12.24383000   15.78490000   12.58686000     -0.167627   -0.09042800    0.95942200
Se   10.65255000   23.42074000   17.96640000      1.726992   -1.58707400    2.00602400
Se   10.15173000   23.37009000   11.35634000     -0.550234   -0.26885700    1.02041000
Se   12.04474000    4.28871000   17.67545000     -0.050946   -0.20278900   -0.12074800
Se   17.64264000    8.39840000    9.22573000      0.504744   -0.07165300    0.24420100
Se   16.89803000   10.35713000    2.97442000     -0.333152   -0.19983900   -0.41677900
Se   18.50411000   13.68061000   10.49378000     -0.480186   -0.03581700   -0.30741100
Se   19.43776000   15.65146000    2.23419000     -0.056829   -0.45489800   -0.11923000
Se   14.05594000   16.08505000    7.96593000     -0.176617    0.18901700    0.03173600
Se   17.95946000   23.62419000    0.17685000     -1.369128    0.77408500    0.07895300
Se   16.86917000    0.84285000   10.70641000      1.285725    0.03836500    0.38024100
Se    0.58849000    2.25860000    0.84521000      0.911872    0.40446300   -0.09643300
Se   21.95120000    4.29294000    9.98162000      1.076602   -0.96587600    0.19761700
Se   21.91924000    4.85171000    2.01454000     -0.072091    0.27257900    0.25611400
Se   21.33120000   12.23567000   12.39216000      0.078549   -1.05559000   -0.26585900
Se   23.07551000   14.07857000    3.98389000     -0.268623   -0.07112000    0.86418000
Se   21.49102000   15.27389000   11.62179000      0.038024    1.66178300   -0.64254200
Se   22.82022000   21.70627000    2.31071000      0.580528    0.18570500    0.24173000
Se   21.65804000    0.01984000   15.11014000     -0.283162   -0.02162600   -0.14653900
Se    4.16975000    3.56595000    9.61524000      0.138647   -0.11704000   -0.45045500
Se    4.42803000    5.82978000   18.81044000     -0.582194    0.76548600   -0.23496800
Se    4.51833000   11.70626000    8.47871000     -0.602868    0.58674700    0.11925400
Se    4.19295000    6.67687000   14.97484000      1.087897    0.63544400   -0.37778100
Se    6.97865000   19.50934000    6.18299000     -0.530537   -0.61134800    0.18111500
Se   21.97727000   15.41888000   19.62993000     -0.220164    0.23213300   -0.95964100
Se    1.25822000   21.88405000   10.99999000      0.588613   -0.32863100    0.17674300
Se    2.57407000   19.83647000   18.03962000      0.161477    0.47751600   -0.13325900
Se    7.25485000    3.05846000    8.07438000      0.619103   -0.07900400   -0.87700500
Se    5.79322000    4.02286000   19.57849000      0.212906    0.36015900    1.05828800
Se    6.40552000   10.03016000    6.04645000     -0.432972   -0.68477300   -0.20601300
Se    3.87752000    9.67903000   19.13436000      0.695787   -0.50399300   -0.16082100
Se    6.97833000   18.19809000    9.44574000     -0.971753    0.04287900    0.31346400
Se    6.12664000   15.35879000   18.22664000     -0.140589   -1.19202200   -0.90963600
Se    9.29206000   20.87374000    9.10543000      0.168820    0.15988900   -0.19544300
Se    9.08345000    3.11529000    0.42681000     -0.144105   -0.14341500   -0.46672000
Se   14.54650000    3.12830000    8.20872000     -0.082802   -0.81539500    0.34742100
Se    8.67570000    5.45167000   17.17032000     -0.357001    0.30526000   -0.32413900
Se   10.59025000    5.17289000    8.75559000     -0.103734    0.05686300   -0.38436300
Se   18.41933000   10.91508000   16.55026000     -0.858347    1.25419600   -0.64586900
Se   12.99219000   19.75182000    8.18068000      0.004538    0.23498700    0.82083600
Se   15.67830000   16.01132000   17.37100000     -1.029979   -0.22470400   -0.49965100
Se   15.80387000   23.38820000    7.22142000      0.195947   -0.65825200   -0.12991800
Se   18.96923000    3.31656000   16.75782000     -0.023566    1.02175400   -0.47795800
Se   17.82827000    4.33629000   10.69599000     -0.111682   -0.33750000    0.34248600
Se   23.30862000    3.36318000   16.88300000     -0.087832    0.36183400    0.45716000
Se   19.11887000    8.86669000   12.91443000      0.997525    1.91131600   -0.95891700
Se   20.37610000    9.69681000   16.66208000      0.615856   -0.83336000   -0.10356500
Se   15.58801000   18.93407000   10.97300000     -0.099570   -0.48549100    0.07525900
Se   18.61604000   14.60731000   17.44930000      1.182062   -0.03901900   -0.38369300
Se   18.55814000   22.98527000    7.82240000      0.211304    0.23361300   -0.28565700
Se   17.93725000   20.28886000    0.92566000     -0.680691   -0.99463700    0.91743400
Se    4.74118000   22.01298000    8.90438000     -0.195726    0.65541500   -0.31179600
Se    3.54201000    2.95841000    0.86642000     -1.329649    1.15717300   -0.00708900
Se    6.99134000    6.91450000   10.11426000     -0.433905    0.53576400   -0.17925700
Se    4.78925000    7.68963000    0.59510000      0.383266    0.22792100    0.17096900
Se    5.31144000   15.97824000    6.51203000      0.526891    0.69762600    0.53790200
Se    7.05287000   12.09428000   17.14855000      0.216414    0.26005000    0.22757900
Se    2.67614000   19.18278000    8.56157000      0.681174   -0.23867700    0.69671900
Se   22.01026000   19.72331000    1.25880000      0.132942   -0.40798100   -0.25162600
Se    8.85433000   23.48166000    7.01537000     -0.085878   -0.71526500    0.03478000
Se   12.11306000    4.15848000    2.50551000     -0.108878    0.07860300   -0.15551200
Se   10.70621000    2.42492000    9.26600000      0.251291   -1.14367500   -0.37445100
Se    8.31767000    6.42761000    0.29524000      0.049766   -0.59634000    1.07683900
Se   10.88204000   13.86374000    7.71566000      0.381650    1.62299700    1.07067600
Se    9.29768000   13.43783000    0.17174000     -0.058654   -0.16960000    0.62368800
Se   13.73791000   22.96560000   10.22364000     -0.141729    0.31767500   -0.01502200
Se   14.97257000   12.52022000   17.02518000      0.617637   -0.12094100   -0.46749600
Se   18.13778000    3.00981000    7.12779000     -0.093400   -0.04051200    0.07626600
Se   16.90470000    4.37296000    1.61881000      0.230284    0.49820300    0.13368800
Se   15.39354000    8.16090000    8.94041000     -0.533754   -0.33879500    0.03409300
Se   15.41592000    8.38746000   17.16080000      0.120158    0.60557300   -0.41044500
Se   15.18759000   14.14631000    8.54508000     -0.064402   -1.18767600   -0.14456100
Se   16.40465000   13.13556000   19.41018000      0.141952   -1.03826100    1.13177200
Se   13.73123000   20.01548000    2.89991000     -0.098322   -0.16202600    1.36937000
Se   19.79113000   21.47895000   17.86229000     -0.206286   -0.01495600   -0.44306300
Se   21.89566000    0.91781000    7.49759000      0.215743    0.15380100    0.93136600
Se    0.44022000    0.29575000   15.83518000      0.316370    0.20244500   -0.24723100
Se   21.42744000    7.34100000    9.23171000     -0.411519    1.06550100    0.44616900
Se   22.85933000    8.07902000   16.79795000      0.176816   -0.50658100    0.48996400
Se    0.12380000   10.80135000    7.66416000      0.847736    0.65909400    0.20638600
Se   22.25084000    8.64996000   19.08286000      0.174240   -0.49908300   -0.42833400
Se   21.52895000   17.45809000    7.93307000     -0.752001    0.02895700    0.84792900
Se   18.74471000   17.76493000   18.23727000      0.261786    0.09537400    0.99394900
Se    1.07023000   22.94788000    8.96636000      0.115745    0.67630900    0.40934100
Se    2.86065000    0.64555000   12.72659000     -0.019465    0.18303900    0.19292400
Se    2.63950000    8.14617000    8.35894000     -1.546480   -0.59483300    0.15026400
Se    2.49899000    8.09028000   17.84337000     -0.064701    0.05625100   -0.29040300
Se    1.34341000   16.13601000    8.78606000      0.139653    0.33605200   -0.26277700
Se    0.96861000   12.95902000   17.80348000     -0.449690    0.03125200    0.54237000
Se    3.60493000   19.64824000    5.45451000      0.184103    0.43715600   -0.08544900
Se   23.03608000   19.40266000   16.63800000     -0.209997    1.63147000   -0.10178400
Se    6.80983000   23.54664000    4.46464000      0.321318   -0.26072300    0.09047600
Se    6.07432000    0.75157000   18.17852000     -0.568776    0.54148300    0.13420600
Se   11.40560000    6.09181000    5.18126000     -0.345436    0.52940600   -0.18061900
Se    6.27289000    7.96977000   15.78359000     -0.153197   -0.28740500   -0.06428000
Se    7.30542000   14.75347000    7.92593000      0.382360    0.37282900   -0.16009700
Se    8.64192000   18.45532000   13.70438000     -0.132624    0.55447000   -0.87001800
Se    7.60521000   16.61764000    3.08376000      0.222741   -1.12892200   -0.65534300
Se    9.44577000   15.95152000   15.09562000     -0.121770   -0.41858300   -0.19392800
Se   14.24948000   21.71751000    4.82813000      0.887536   -0.75334800   -0.55053000
Se   13.92386000   22.65248000   16.03380000      0.149760    0.19335200   -1.10669500
Se   13.67795000    8.12150000    4.24695000     -0.537574   -1.31038800    0.56465800
Se    9.33074000    7.90368000   13.44626000      0.457285   -0.70426500    0.24735900
Se   13.99847000   12.81953000    4.57872000      0.064877   -0.42209400    0.34713600
Se   14.51548000   15.16323000   14.69522000      0.067505    0.98764700   -0.19972400
Se   11.65473000   19.07596000    4.06586000      0.857306   -0.38482600   -0.36193100
Se   16.33584000   20.70012000   17.54551000      0.182479   -0.20293900   -0.32586500
Se   17.79294000    1.59590000    4.39711000     -0.043807    0.39540800   -0.12093400
Se   19.57702000    1.87595000   18.32343000      0.473570   -1.17093400    0.53849800
Se   19.65688000    7.83464000    4.53611000      0.689846   -0.11227600   -0.69730300
Se   19.88836000    5.65522000   17.35207000      0.429497   -0.40374300   -0.24179200
Se   20.24825000   11.90648000    4.34368000     -0.872069    1.07465700   -0.54433100
Se   16.61794000   12.66292000   12.13040000      0.225725   -0.94308800    0.29047900
Se   19.30739000   18.11343000    4.54105000      0.240496    0.35396700   -0.08488900
Se   21.16126000   20.28116000   14.22993000     -0.335738    0.62211500   -0.42074000
Se    5.45308000    6.30222000    7.02107000      0.583500    0.28857500    0.24419500
Se    3.12269000    3.87991000   16.97562000      0.127009   -0.63876900   -0.16169100
Se    3.27525000    9.86493000    3.13958000     -0.781777   -0.15102200   -0.15565400
Se    5.00794000   10.83703000   14.45905000     -0.832364    0.31871000   -0.69439400
Se    4.55851000   14.03539000    5.59814000     -1.316092   -0.43809300   -1.02538700
Se    1.42218000   16.90871000   18.85180000      0.552363    0.53526500   -0.21085800
Se    1.90348000    0.02983000    5.64602000      0.050813    0.15009000    0.56288000
Se    3.27628000   20.65105000   13.56941000      0.413650   -0.10795300    0.20153100
Se   12.39634000    0.41635000    6.29889000     -0.007859    0.70706800    0.14273000
Se    6.88904000    4.28499000   16.03133000     -0.159654   -0.16341600   -0.13878300
Se   11.22883000   11.72153000    7.25048000      1.258809   -0.81969700   -0.83307700
Se   11.14788000   14.44573000   17.63037000      0.060826   -0.61506800   -0.94692900
Se   10.23078000   17.42070000   10.17127000      1.429491   -0.10727700   -0.50914600
Se   11.03109000   19.81633000   18.63170000      0.516101    0.37424000    0.63954100
Se   10.73661000   21.56922000    3.93482000     -0.688734    0.08771400   -0.40223900
Se    8.24765000   20.93389000   18.72168000     -0.181399    0.21994200   -0.74858900
Se   15.35655000    4.95414000    5.91264000      0.350217    0.09662200    0.04233800
Se   13.85405000    6.12575000    0.49416000      1.106654   -0.50984100    0.67001500
Se   16.39979000   10.59789000    6.58971000      0.375292   -2.04126600    0.64604700
Se   18.18272000    7.05246000   13.66351000     -1.237899   -1.82443800    0.65889300
Se   17.38502000   14.17522000    5.25936000     -0.447678   -0.17327500   -0.29773000
Se   12.60163000   18.62542000   15.66085000      0.809955    0.12729800    0.20362100
Se   15.87053000   22.78932000    3.40861000     -0.238176    0.60438900    0.17684000
Se   17.61372000    3.46019000   13.11744000      0.472560    0.01691800    0.73816200
Se   21.57800000    4.65902000    6.55590000      0.952299    0.92080900   -0.48266900
Se   22.57308000    5.35569000   14.17326000      0.125608    0.25135100   -1.79194800
Se   17.59268000   10.30017000   11.23766000     -0.278203    0.24854000    0.36473000
Se   22.21073000   14.41840000   15.42972000      0.000909    0.29802400   -0.55146700
Se   17.79804000   16.34205000    7.70380000      0.478671   -1.28206500    0.37972200
Se   22.18399000   16.80281000   16.11127000     -0.605677   -0.98796000   -2.93340900
Se   20.99437000   22.68946000    8.74616000     -0.270586    0.49996700   -1.23853500
Se   22.81383000   23.05390000   19.26914000     -0.335559    0.01780800   -0.45479800
Se    4.34014000    2.74119000    7.10290000     -1.539405    0.51573200    0.79775100
Se    4.73596000    0.15935000   14.89289000      1.482901    0.79164300    0.18097800
Se    4.11456000    5.34829000    3.55759000      0.901962    0.80272900    0.04999800
Se    4.78740000    8.99664000   11.11018000     -0.752115   -0.01128000    1.12170400
Se    1.56345000   11.67639000    3.55204000      0.365568   -0.38955700    0.08409300
Se    4.31797000   14.28601000   15.95415000     -0.780908   -0.82044700   -0.42641100
Se    3.68334000   17.07675000    1.31441000      0.937435   -0.48343500    0.22897800
Se    3.35580000   16.70884000   13.43559000      1.012715    0.07091500   -0.36125300
Se   11.05627000    0.56210000    1.92518000     -0.876632    0.56634100    0.70849300
Se   11.04924000    2.04073000   14.75358000      0.300779   -0.95952900    0.14680000
Se   10.09224000    9.59814000    3.57849000     -0.859719   -0.44985100   -0.47600800
Se    9.48202000    8.78175000   16.86286000     -0.616652    0.08034300   -0.25515700
Se    8.68969000   13.06159000    4.96832000     -0.432312   -0.70598500   -1.49119700
Se   12.21289000   11.17946000   12.49269000     -0.429614    0.09843300   -0.31303800
Se    8.72513000   19.28189000    1.51806000      1.415393   -0.56575400    1.19762200
Se    9.11907000   22.28283000   15.45422000     -1.057174   -0.11667500   -0.05255100
Se   19.12257000    4.58452000    8.59044000      0.074096    0.79170000   -1.02615400
Se   14.94388000    0.76317000   17.20182000     -0.278052    0.40123100   -0.02263700
Se   16.95125000    7.73034000    3.07288000      0.058484   -0.21864300   -0.45129100
Se   13.30683000    7.63368000   13.92796000     -0.451152   -0.51476800   -0.30675300
Se   17.56596000   12.88629000    1.84640000     -1.005875    0.21142400    0.07351800
Se   19.38460000   18.24512000   13.80726000     -0.139787   -0.79676100    0.39321700
Se   15.36563000   16.92650000    3.19963000      0.282735    1.14945000   -0.05112700
Se   16.94814000   20.06641000   14.25623000      0.846340    1.04459400   -0.48159200
Se   22.69095000    1.98415000    4.79554000     -0.459565    0.64473300   -0.48042800
Se   22.22971000    0.41722000   11.75526000      0.138831    0.96655000   -0.09711400
Se    0.10248000    7.66317000    5.53430000     -0.408292    0.42198300    0.81095200
Se   21.64768000    7.17337000   12.58198000      0.349133   -0.95928800    0.83265100
Se    0.38078000   17.96866000    6.55857000      0.296422   -0.68313200   -0.17206900
Se    0.81634000   11.46826000   14.31738000      0.255915    0.49173600   -0.02851300
Se   22.36008000   20.44186000    6.16868000      0.007064    0.36414400    0.47369300
Se   19.82647000   21.74121000   11.13953000     -0.966422   -0.31062100   -0.76118900
Se    2.22054000    4.24626000    6.77845000      0.619635   -0.14452500   -0.75641100
Se    1.59972000    4.49379000   11.87708000     -0.471321   -1.53400600    0.51199400
Se   22.30324000   10.92323000    4.70522000      0.565045    0.22542000   -0.74892000
Se    2.14604000    7.83095000   13.08134000     -0.524928   -0.42848500    0.29959700
Se    0.63522000   14.88702000    2.19551000      1.949904    0.52364300   -0.37972600
Se    1.19003000   16.34998000   13.90532000     -0.682117   -0.26733200    0.98968400
Se    2.86845000   19.74437000    2.10302000     -0.334435    0.07723600   -0.80326200
Se    6.78317000   17.45758000   18.70467000     -0.618442    1.09129500   -0.02666300
Se   11.09403000    2.60077000    5.48573000      0.044773   -0.21536500   -0.19160200
Se    8.01355000    2.07325000   13.19672000      0.532752    1.36748300    0.69184000
Se    6.04958000    8.61829000    3.13768000      0.104596   -0.15630300    0.17386900
Se    8.77560000   10.65561000   13.58697000      0.702667    0.74930500   -0.34546700
Se    7.06217000   14.35427000    1.99357000     -0.320460    0.88298300    0.06201400
Se   10.12668000   14.64477000   13.11636000      0.381413    0.04342700    0.07878200
Se    6.06930000    0.09591000    9.87119000      0.524881   -0.74739300    0.36791200
Se    5.71479000   19.74725000   16.55120000     -0.587698    0.32011900   -0.96732200
Se   13.30527000    0.47790000    2.79210000     -0.147469   -0.63197600   -0.69082400
Se    9.73051000    5.19934000   13.33351000      0.271751    0.91659900   -0.49371700
Se   13.84497000   10.34605000    1.15336000     -0.455582    0.21286800    0.23244000
Se   15.13563000   10.92273000   13.59893000      0.097704    0.12348400    0.03155200
Se   10.29429000   17.05171000    5.77017000     -0.077583   -0.34217300    0.24604200
Se   13.35497000   18.53707000   12.14053000      0.598347    0.51637600   -0.57714300
Se   14.69750000   21.41479000    0.06378000     -0.498840   -0.02968100    1.24886500
Se   15.35822000   22.49500000   14.05737000     -0.410290   -0.63049300    0.52986300
Se   19.21294000    5.22591000    0.28406000     -0.788454   -0.52266400   -0.13284700
Se   13.97979000    6.16895000   10.40672000      0.013177    0.56449700   -0.53751400
Se   20.56275000    7.62370000    2.15542000     -0.112578    0.69267000    0.54465900
Se    1.87964000   12.77379000   12.53355000     -0.412677    0.13353000    0.46646200
Se   21.52643000   18.28347000    3.61780000     -0.098136   -0.87029200    0.68849900
Se   18.15171000   15.86195000   13.98854000     -0.055849    0.01338600   -0.52692100
Se   19.96310000   22.16310000    3.66604000     -0.332586    0.35132100    0.15521600
Se   19.21211000    0.07819000   14.23612000     -0.288715   -0.40249700   -0.32951400
