384
23.69824000 23.69824000 19.89960000
Ge    5.63490000    5.88629000   11.92348000      0.654870    1.06288200    1.79249100
Ge    5.06163000    4.38894000    2.82664000      0.789972   -1.46507200    1.17224300
Ge    3.16705000   11.94654000    6.95884000     -0.405724   -0.22243900    0.00225700
Ge    9.04954000   13.94853000   17.08354000     -0.570636    0.34106400    0.07822400
Ge    4.85060000   15.66167000    9.55620000      0.997777    0.47971300    1.24067900
Ge    9.13185000   18.29995000   19.19843000     -0.283778   -0.18519200   -0.11444600
Ge    7.29798000   23.65820000   11.07368000     -0.575408    0.70776200    0.14461500
Ge    5.64426000    2.39359000    0.19972000     -0.426916   -0.59746500    0.62880600
Ge    8.68513000    4.93708000   11.64453000     -0.012201   -0.36721000   -0.58100500
Ge   11.28147000    5.20557000   18.36321000     -0.770234   -0.68381200   -0.71722000
Ge   11.84743000    9.20993000   11.41384000      0.470145    1.99463900   -0.81211500
Ge   13.60874000   12.72593000   18.39448000      0.050146    0.02472000    1.10907900
Ge   11.34999000   17.55952000    8.93005000     -2.193434    0.70825100    1.09334200
Ge   13.52184000   16.47260000    0.95566000      0.375740   -0.26164500   -0.41148200
Ge   11.20193000    0.49287000   10.07035000      0.243674   -0.77634100   -0.25432200
Ge   16.18933000   22.13793000   18.94883000      0.531383    0.62121800    0.30383200
Ge   19.43767000    4.83675000   11.93978000     -0.019803    0.46472800   -1.53448800
Ge   19.69432000    8.50703000   17.48835000      0.013844   -0.43247000    0.40957000
Ge   19.75294000   13.04196000    9.97653000      0.096312   -0.12967700    0.42967300
Ge   18.50579000   12.28080000   18.60104000     -0.950519   -0.78227200    0.03950300
Ge   14.41180000   18.72001000    9.00712000     -0.089188   -0.98915600    0.60736800
Ge   18.62996000   16.18971000   19.47197000     -1.049967    0.31000300    0.55539800
Ge   19.42541000    1.56510000   11.05597000      0.163940   -0.24092400    0.35913700
Ge   18.66633000    3.73879000    2.35305000      0.275379    0.02208700    0.09690400
Ge   23.29410000    6.08658000    8.81454000     -0.009372   -0.85303800    0.08692000
Ge    1.05881000    3.81563000    3.40223000     -0.426543   -0.56402900    0.42693200
Ge    1.89364000    9.59733000    9.79407000      0.078316    0.04200200   -0.61363100
Ge    0.69229000    8.99058000   19.83908000     -1.210277    0.21379500    0.24103200
Ge   21.76687000   15.69928000    9.31185000      1.094889   -0.56573200    0.22517200
Ge    1.65576000   14.83940000   19.45811000     -0.597998   -0.67526900    0.88899100
Ge   20.79565000   23.11839000   10.14392000     -0.270994   -0.07806700   -0.06797300
Ge    1.58756000   21.39034000    0.09192000     -0.254841   -0.33957700   -1.07294000
Ge    4.71860000    7.36399000    9.12847000      0.558113   -0.00334100   -0.31360400
Ge    2.45413000    6.31085000   19.83088000      0.425215   -0.09325500    0.03433600
Ge    1.45980000   10.81000000    4.64531000      1.064893   -0.93535900   -0.02279800
Ge    4.42096000   12.95535000   15.84428000      1.051694   -0.07262600   -0.47264500
Ge    5.52685000   19.89597000    2.88056000      1.214994   -0.02150200    0.71131700
Ge    0.50884000   17.86522000   18.33400000     -0.417719    0.97956700   -1.80551800
Ge    5.40271000   20.55428000    8.63033000      0.225311   -0.32823800    0.46700800
Ge    3.61896000   23.19121000   17.41885000     -0.045581   -0.04400900    0.52955800
Ge   11.07670000    2.44998000    6.87743000     -0.717373    0.00320400    0.00394300
Ge    6.59582000    8.48567000   19.16043000      1.727134   -0.39994800   -0.30386500
Ge    6.23592000   12.58693000    6.53065000      0.669226   -0.07613600    0.25080800
Ge    8.15325000    9.76162000    2.04965000      0.402607    0.85508400   -0.06380400
Ge    6.86722000   17.68584000    6.67642000      0.384580    1.09987400    0.36769300
Ge    5.61603000   20.59147000   18.59627000     -0.166507    0.51084700   -0.19991300
Ge   12.19691000   22.68303000    5.89880000     -0.075095    0.21229500   -0.16704000
Ge   10.35161000    0.02298000   17.08466000      0.286370    0.19239100   -0.19186200
Ge   12.48328000    6.95209000    5.94378000     -0.967657   -0.27861400    0.12644300
Ge   14.51820000    7.85206000   16.99877000     -1.081993    0.16604500   -0.39852300
Ge   15.62008000   11.87137000    5.77845000      0.790848   -0.54808800    3.15731700
Ge   16.92142000   15.05925000   15.75384000      1.043184   -0.34782200    0.76504900
Ge   12.25294000   16.01494000    4.96559000     -0.156379    0.49009200   -0.00745600
Ge   14.98998000   19.29802000   16.67088000      0.300110   -0.14701500    0.28540700
Ge   15.80001000    0.15538000    9.23090000      0.612834    0.18811900    1.40506700
Ge   18.25493000    3.55147000   18.42111000     -0.408094   -0.10296400   -0.17871500
Ge   19.86020000    5.55665000    8.36771000     -0.456627   -0.06107600   -0.75804000
Ge   22.08752000    5.39001000   16.63438000     -0.370962   -0.29122100    0.76945300
Ge   19.92400000    8.54197000    7.65546000     -0.612538   -0.22549700   -0.67197100
Ge   22.50011000   13.82475000   17.81451000     -0.445434    0.07830000    0.10504400
Ge   19.74404000   16.90527000    7.25289000     -0.054052    0.00243900    0.65602500
Ge   18.51742000   19.35819000   16.43372000      0.398101    1.45793500    0.49724000
Ge   20.21260000   23.60056000    7.11543000      0.249583   -0.56936500   -1.00950800
Ge   19.61334000   21.16872000    1.00137000     -0.022531    0.59873000   -0.28328400
Ge    6.44823000    2.84320000    8.93656000     -0.942123   -0.67360100    0.41506300
Ge    3.27549000    2.81498000   17.05679000      0.144630    0.45155700    0.04428400
Ge    3.29273000    7.03885000    5.79211000      0.582307    0.69081600    0.22859700
Ge    3.18713000    8.97165000   14.05300000      0.619871    0.06869600   -0.61208300
Ge    1.39410000   17.11722000    6.46074000      0.867018    0.35046700    0.10002700
Ge    1.81604000   15.15178000   15.89324000      0.110892   -0.25380600   -0.47537700
Ge   23.53815000   20.70868000   10.35577000      0.582967   -0.03657200    0.36319100
Ge    5.06317000   21.09806000   16.17331000     -0.583143   -0.30203000   -0.55353400
Ge    7.44419000    2.35276000    3.44185000      0.361769   -0.38995300   -0.68505000
Ge    8.18473000    2.49334000   15.49728000      0.195567   -0.90014600    0.45321700
Ge    8.82351000    9.97847000    4.93240000      0.706116    0.51638400    0.79250900
Ge    9.13777000   11.04356000   15.08765000     -0.159047   -0.26809500    0.55094100
Ge    9.08870000   14.17546000    6.54739000     -0.021079    0.88133500    0.36603200
Ge   14.06136000   12.45252000   15.88894000      0.219857    0.82611700   -0.74227300
Ge    8.65618000   21.24611000    4.68898000     -0.135751    0.12971000    0.02568900
Ge    8.65558000   19.99527000   16.20777000     -0.321345   -0.55317900   -0.69373400
Ge   14.47136000    1.81435000    6.22038000      0.378466    0.07372600    0.43838600
Ge   12.54069000    3.33482000   15.52307000     -0.006703   -0.35140200   -0.66890900
Ge   15.39743000    8.29626000    4.68454000     -0.554349    2.16391200    0.37794800
Ge   15.61259000    9.08387000   13.70316000      0.358145   -0.83246500   -0.12863000
Ge   16.35945000   13.67742000    3.34635000      0.305927    0.56707400   -0.47550500
Ge   13.94541000   16.24809000   16.80106000     -2.620078   -1.02491200   -1.69877600
Ge   13.16430000   19.01748000    0.57956000      0.202248    0.49712300   -0.10329800
Ge   10.65536000   21.61986000   19.13773000     -0.287678    0.20462700    0.46943600
Ge   22.58606000    4.12054000    4.94095000      1.339374   -1.56552800    0.22741600
Ge   21.08207000    2.47533000   14.51992000      1.089077   -0.29742700   -0.02938700
Ge   22.32934000    9.84154000    6.28293000      0.406694   -0.58400400    0.14738100
Ge   19.58281000    9.78660000   13.55760000     -0.566256   -0.24728300    0.49657700
Ge   22.11516000   16.86459000    2.16066000      0.933286   -1.35447400    1.23174600
Ge   19.42271000   15.94621000   14.64053000      0.403102   -1.00535800    0.26902800
Ge   20.38550000   19.67262000    4.03761000      0.492422    1.25293500    1.86953000
Ge   21.36249000    0.21880000   17.01134000     -0.347817    0.65460700    0.89459300
Ge    6.25692000    4.52345000    5.57560000     -0.142458    0.96591200    0.61543700
Ge    4.06637000    1.91075000   14.37748000      0.476130   -0.83912300    0.35475500
Ge    4.57350000   12.02330000    3.07347000      0.061436   -0.28301800    0.30476200
Ge    7.64208000    8.20161000   13.27080000     -0.171780    1.00786400   -0.82278300
Ge    6.28246000   16.73678000    0.85692000     -1.069031   -0.46434900   -1.86520600
Ge    2.74446000   13.62559000   11.38410000     -0.633467    1.03098200    0.68421900
Ge    5.65622000   22.60858000    6.31608000     -0.357883   -0.01041800    0.03517300
Ge    6.78873000   20.03510000   12.87762000     -0.685398    0.22995700   -0.11597200
Ge   15.33365000    4.62687000    4.05415000      0.351185   -0.12290600   -0.72391600
Ge   12.70057000    0.48652000   12.45735000     -1.058132    0.16984500   -0.72543600
Ge   11.59691000    8.15708000    0.24942000     -0.076411    0.17377900   -0.34407600
Ge   12.14282000    8.93509000   13.76840000      0.190715   -0.26404000    0.84654700
Ge   10.82720000   14.08114000    1.55519000     -0.384167    0.49851200   -0.44843000
Ge    7.79642000   16.40075000   10.47075000      0.912845    0.04252700    0.38831900
Ge   13.08284000    0.32343000    1.87033000     -0.327374   -0.41539800    0.57686500
Ge   10.90792000   21.55887000   13.28537000     -0.171146   -0.09032500   -1.18619000
Ge   23.37660000    2.72206000   18.39166000     -0.485813   -0.87509000    0.02650100
Ge   12.14482000    5.28516000   11.39959000      0.482935   -1.43684700    0.76306900
Ge   17.60871000    8.06679000   19.17544000     -0.044780   -0.23278400    0.40438900
Ge   13.22068000    7.49546000    8.59337000      0.320731   -0.76114100    0.14955800
Ge   19.52600000   12.74763000    2.65369000      1.464460   -1.00037900    0.42159700
Ge   16.30499000   14.68484000    9.99824000     -0.969044   -0.30801000    0.17004200
Ge   16.69793000   21.75906000    3.45422000      0.769886   -0.86882500    0.24473300
Ge   17.96372000   21.57283000   11.93374000     -1.292843    0.33967700   -0.09852600
Ge    0.20412000    0.73146000    2.86264000     -0.820877    1.60574800   -0.47225000
Ge   22.90576000    2.04411000   10.22844000     -0.291698   -0.27092300    0.96552000
Ge   22.98742000    9.25913000    2.96724000     -0.793430   -1.20125600   -0.34129900
Ge   21.89702000    9.21096000   11.81534000      0.507175   -0.26092900   -0.27532400
Ge    0.41646000   13.39246000    4.23472000      0.011071    1.30453000   -0.08785200
Ge    0.09069000   15.66028000   11.93875000     -0.008910    0.96847300   -0.43685500
Ge    0.57910000   21.26938000    3.73766000     -1.183760   -0.08842100    0.80923200
Ge   21.54623000   18.58334000   13.08760000      0.755724   -1.17046500    0.30553300
Se    1.90405000    0.27661000   19.76955000      0.352788    0.05766000   -0.42499400
Se    1.55093000    2.21737000    9.73172000      0.315187    0.40506700    0.13788900
Se    1.05121000    7.50419000    1.80763000      0.105444   -0.38926300   -0.30720800
Se    0.75765000    7.61682000   10.90196000     -0.337147   -1.32051900   -0.64692400
Se    0.96248000   11.23864000    0.63836000      0.415977    0.44383700    0.06737600
Se    3.08802000   13.94705000    8.97079000     -1.070663   -0.09703800   -0.91066600
Se    2.91890000   20.99003000    3.71013000      0.260208   -0.13089600    0.01490600
Se    0.22579000   19.02788000   12.30635000     -0.375205   -0.03124600   -0.46377800
Se    4.64901000    1.63812000    2.85248000      0.497440    1.25077300    0.01414100
Se    5.67212000    2.04273000   12.24242000      0.340377   -0.04738600    0.21911000
Se    8.10561000    4.81086000    3.74279000      0.110278    0.12188100   -0.01694100
Se    8.43500000    8.85032000   10.79321000     -0.225917   -0.55997900    0.57292800
Se    7.80050000   11.47749000    0.37740000      0.104021    0.12129500   -0.45117700
Se    6.68420000   14.64700000   11.61971000     -0.437628    0.12884900   -0.61520000
Se    7.82331000   21.70253000    2.30922000      0.628722   -0.80605100   -0.18390600
Se    8.68854000   20.78621000   11.52105000      0.497875    0.14733700    0.19149400
Se   14.46019000    0.95974000    0.05217000      0.075822    0.15653300   -0.74732000
Se   13.99228000    2.67399000   11.62443000     -0.062551   -0.53335000   -0.13915000
Se   11.79688000    7.35677000   17.41523000      0.574833    0.85215700   -0.03904100
Se    9.70873000   10.33249000    8.16715000     -0.354379   -0.23855600    0.20777900
Se   13.29413000   13.96118000    0.91128000      0.189140   -0.28993700    0.17845400
Se   13.94194000    9.32365000   10.05798000      0.050487    0.19780700    0.72678800
Se   15.70027000   17.12530000    2.03587000     -0.354998    0.15746400   -1.49611200
Se   12.19968000   19.14713000   11.16678000      0.255741   -0.23635900   -0.46647600
Se   17.85035000    4.01450000    4.72817000     -0.067728   -0.56087800   -0.20139900
Se   14.16839000    4.31904000   13.30506000      0.171635   -0.17499800    0.16225600
Se   17.36364000    5.10462000   16.40790000      0.185182    0.52367300    0.91116000
Se   18.37289000    4.44011000   13.98718000      0.576624   -0.33558800    1.01593600
Se   19.21014000   10.21356000    0.39336000      0.527525   -0.74960600    0.20130500
Se   16.94449000   16.61765000    8.85743000      0.281112    0.84305100   -0.52716900
Se   20.25798000   17.71947000    0.85956000      0.682513    0.11829000   -2.28522900
Se   19.96648000   20.15867000   11.77190000     -0.172645   -0.18001100   -0.99812200
Se    2.27832000    1.63941000    3.81373000      0.215253   -0.32824300    0.59706900
Se    3.81428000    5.88603000   13.98780000      0.065710   -0.04839200   -0.36134300
Se    5.52269000   12.07877000    0.72923000     -0.366387    0.28949700    0.11563000
Se    4.33898000   12.03246000   10.93261000      0.965673   -1.59746600    0.12397700
Se    4.34107000   15.53498000    1.21632000     -0.040086   -0.22216200    0.18977300
Se    3.46167000   16.34953000   11.70970000     -0.540594    0.02993600   -0.54418800
Se    5.59702000   23.09668000   19.32260000     -0.548909   -0.76417300   -0.26886800
Se    4.87925000   21.78059000   11.90986000      0.653485   -0.23201200    0.13292600
Se   12.56926000    5.60238000    0.34339000      1.168191    0.54674700    2.02170200
Se    8.51698000    2.60754000   10.22670000      0.383972    0.14711800    0.38631300
Se   10.65796000   10.76510000    0.11892000      0.076759    0.42126600    0.44170400
Se   11.47718000   11.93989000   11.55608000     -0.207737   -1.08463200    1.02348400
Se   11.51866000   16.56346000    2.31799000     -0.255109   -0.24758200    0.66388900
Se   11.55991000   15.21396000   13.71448000     -0.665412    0.47411800   -0.30431500
Se   12.71298000   23.22178000   18.10478000     -0.077756    0.23007800    0.68472000
Se    9.34063000   23.45262000   12.52202000      0.570699    0.07361700    0.27540700
Se   13.03864000    3.51134000   17.85320000     -0.706889    0.18611900    0.29376500
Se   17.70051000    7.69613000    9.48766000      0.458096   -0.24467600   -0.36080300
Se   15.34815000    7.04869000    0.08555000      0.780614   -1.03368400    0.67153100
Se   18.05449000   13.80861000   11.87140000     -0.077773    0.05965200    0.13927700
Se   18.66025000   14.92441000    2.16736000      0.041936    1.03608200    1.07221100
Se   13.98637000   13.62201000    9.08647000      0.568667    0.04917300   -0.07215100
Se   17.65019000   22.66732000    1.40236000      0.124437    0.02630200   -1.83493200
Se   16.26587000   21.53817000   10.05959000      0.476499    0.02830600    0.21446500
Se   23.57064000    3.06246000    1.45971000     -0.330704   -0.86878000    0.13971700
Se   21.78435000    4.17762000   10.34226000      0.407606    0.30684100    0.19028500
Se   21.36070000    5.42063000    3.63992000     -1.397906    1.44437800   -2.11015400
Se   21.22893000   11.78426000   11.61560000      0.426718    0.38638500   -0.13129900
Se   22.54960000   14.02895000    2.02585000      0.099539    0.31636400   -0.26679500
Se   21.23214000   16.02147000   12.05142000      0.171942    0.10722700    0.20301300
Se   23.11328000   22.34264000    1.94111000     -0.247879   -0.08162500   -0.15773300
Se   21.72820000   22.18529000   15.45588000      0.771580    0.12182800    0.14577200
Se    4.92395000    4.82038000   10.00808000     -1.079060   -0.61175800   -1.52554500
Se    4.02112000    5.35795000   17.18781000     -0.702299   -0.62846000    0.36018900
Se    4.29663000   10.52866000    8.61439000      0.691621    0.06930000    0.30291200
Se    4.13991000    8.85740000   17.07078000     -0.203213   -0.51768200   -1.25691900
Se    5.20387000   19.91713000    6.18313000      0.630396   -0.22230400   -0.06988200
Se   22.83698000   16.22490000   19.25992000     -0.560000   -1.23240100   -0.17360100
Se    1.44709000   22.72870000   11.89338000     -0.693618   -0.43225300    0.10112900
Se    2.67411000   20.88811000   17.74134000     -0.490863    0.01398800    0.29441300
Se    7.78732000    3.37904000    7.07201000      0.566349    0.35863300   -0.76489400
Se    5.38197000    4.84931000    0.61842000      0.261561    0.65948500   -1.45934500
Se    7.43718000   10.27263000    7.01070000      0.244144   -0.09577600    1.00325400
Se    4.65241000    9.98130000   19.00950000     -0.636863    1.37739800    1.37709400
Se    6.08764000   18.21204000    9.88283000      0.251489   -0.36873900   -0.62439200
Se    6.12863000   17.47356000   17.87109000      0.759625   -0.11002900   -0.03014700
Se    9.04754000   19.26786000    7.05446000     -0.745282    0.51040400    0.84483700
Se    8.25000000    2.19270000    0.89698000      0.504815   -0.46971300    0.94356400
Se   13.54426000    2.20087000    8.68073000     -0.618415    0.05554200   -0.13287500
Se    8.51326000    4.13943000   18.60270000      0.629976    0.45579500    0.61259400
Se   11.32768000    7.18127000   10.34130000     -1.518072   -0.15613800   -1.55667900
Se   16.07592000   13.54080000   17.75719000     -0.140385    0.03254600   -0.50915500
Se   13.17256000   16.65202000    7.99094000      1.746723   -0.48924700   -0.66996500
Se   15.84819000   16.98091000   17.70670000      1.253769    0.75506100    0.56891700
Se   14.45006000   23.16638000    7.44694000     -0.403950   -0.42590600   -1.24671600
Se   17.23968000    1.76662000   16.96061000      1.059090   -0.88012800    1.15115000
Se   17.36583000    3.38118000   11.04564000      0.155459    0.40308900    0.20055800
Se   20.96271000    3.60951000   17.90420000      0.242325    0.26860600    0.10046200
Se   18.74415000   10.39873000   10.38516000     -0.107400   -0.46030600    0.38152900
Se   19.04451000   10.18984000   16.09480000      0.010251    1.01044300   -0.35611900
Se   15.08188000   17.01956000   11.00137000      0.102534    0.02448400   -0.08617000
Se   19.77926000   14.36728000   18.42843000      1.522044   -0.42866800   -0.58819600
Se   19.33982000   21.57437000    8.45106000      1.494636    0.22166000    0.07507800
Se   18.93742000   18.93919000    2.23484000     -1.914847    0.27028000    0.33243700
Se    5.57275000   23.15199000    8.92852000      0.149815    0.23596700   -0.10502900
Se    3.13917000    2.35986000   19.58791000     -0.339298    0.67270100    0.00879500
Se    7.57289000    6.75185000    9.91100000      0.481938    0.40843600    0.41001100
Se    4.73213000    7.76854000    0.61197000     -0.711354   -0.11462000    0.27064500
Se    3.00513000   16.46600000    4.49932000      0.242651   -0.40572200    0.53603900
Se    6.40597000   12.81470000   17.39111000     -0.536999    0.02315500   -0.64094100
Se    2.40167000   20.77348000    8.47519000     -0.435124   -0.25266700    0.16714800
Se    0.64160000   19.02603000    0.34508000      0.024766    1.21288800    2.01129200
Se   10.63350000    0.04179000    7.45501000     -0.983932    0.23599100    1.35068800
Se   11.67191000    3.58959000    1.77939000      0.859203   -0.10056400   -1.73171700
Se   12.12402000    4.15813000    8.57570000     -0.113356   -0.35322000    0.38636400
Se    8.74958000    7.66086000    1.46628000      0.290306   -0.99051600   -0.69036500
Se   11.11367000   13.45392000    7.69556000      0.309158    0.53785400    0.26271800
Se    9.00299000   15.16630000   19.35128000      0.531069   -0.38780700    0.52071700
Se   12.48104000   22.00102000   10.30035000     -0.169222    1.09183600    0.25407100
Se   12.16732000   14.51586000   17.57911000      0.412831    1.05646900   -0.75979300
Se   18.33665000    0.95430000    8.71321000     -0.453628   -1.29841000    0.04946700
Se   16.59871000    4.43219000    0.86290000      0.148523   -0.18831800   -0.00839400
Se   16.09815000    6.27121000    8.24594000      0.991077    0.80684200   -0.58700400
Se   15.18192000   10.31246000   15.71640000      0.728960   -0.91369300    1.19610900
Se   14.64980000   11.52142000    8.26408000      0.425042    0.63644400   -0.89822800
Se   16.76022000   12.91512000    0.62743000      0.251013   -0.48838300   -0.53857100
Se   14.90434000   18.63119000    5.01274000      1.404864    0.32026800    0.41925400
Se   18.54757000   21.37984000   17.93937000     -0.208361   -0.03110300    0.28070600
Se   22.46622000    0.36598000    8.42639000     -0.300368   -0.25359200    1.00121100
Se   23.22355000    1.53834000   15.99915000     -0.616535   -0.37742900   -0.62078200
Se   21.17604000    7.37558000    9.40023000      0.470831    0.85041100    0.73720700
Se   23.31116000    6.48684000   18.50025000     -0.333932   -0.24962500    0.00873000
Se    0.67261000   10.67571000    7.68245000     -0.135292    0.86954400   -0.19490200
Se   21.06433000    8.65642000   19.41731000      0.361953    0.08076900    0.01116100
Se   21.41630000   17.95184000    8.72140000     -0.447406    0.48611700   -0.31080800
Se   19.24175000   17.30248000   17.22615000      0.879767   -0.51581500   -0.43645600
Se    2.28052000   23.65227000    9.99585000      0.308632   -0.03980300   -0.42854200
Se    2.54119000   23.43863000   14.39925000      0.679589    0.00846700   -0.04457300
Se    2.41296000    7.41228000    8.17349000     -0.286428    0.03871400   -0.01221800
Se    1.92619000    8.15499000   17.95998000      0.064084   -0.36818500   -1.17869500
Se    0.94780000   15.76482000    9.19640000     -0.540967    0.15817500   -0.02116500
Se    2.36779000   12.79844000   16.97094000     -0.791263   -0.43972800    1.01989300
Se    0.87615000   19.99411000    6.87504000      0.402465   -0.16344000   -0.01227400
Se   23.05178000   19.30025000   16.57193000      0.139306   -1.68620600    0.24219700
Se    7.49708000   23.52824000    4.98108000      0.270812   -0.34947400    0.32881400
Se    7.00237000    2.31645000   18.03901000     -0.104409   -0.43708200   -0.84986200
Se   10.11757000    6.41272000    6.03485000      0.962171    0.20174000   -0.24980700
Se    7.33080000    7.23146000   16.50810000     -1.670560    3.44862300    0.17891300
Se    7.37863000   14.12620000    8.49103000      0.183754   -0.29804700   -1.44635400
Se    8.63082000   17.80484000   12.41531000      0.443725    0.18222500   -0.18392100
Se    6.66380000   17.74757000    4.02701000     -0.401348    0.30981100   -0.17311200
Se    8.31018000   17.06001000   16.82321000     -0.591051    0.80667400    0.61893700
Se   14.25057000   21.87317000    4.49878000      0.264768    0.00861000    0.54034000
Se   13.66877000   23.26082000   15.52166000     -0.176950   -1.05577600    0.83062200
Se   12.96050000    8.52952000    4.08174000      0.519393   -0.27731300    0.54782700
Se   10.03200000    7.63194000   14.60596000      0.463435    0.18823900   -0.23428100
Se   14.36164000   12.55471000    4.14470000     -2.796416    0.15430500   -1.81680400
Se   14.96369000   14.66844000   14.57781000     -1.571594    0.00670000   -0.58959200
Se   12.65345000   18.62377000    5.10202000     -1.245685   -0.58284600   -0.02123700
Se   15.52707000   19.79121000   19.34526000     -0.785036   -0.63703800    0.10319700
Se   18.76388000    1.39525000    3.96236000     -0.292262   -0.31909200    0.31241400
Se   19.07181000    0.61765000   18.45711000     -0.126790    0.45137800   -1.23467300
Se   19.83440000    6.76372000    5.95257000      0.259061    0.13433900    0.98770900
Se   20.14204000    6.67923000   16.02870000     -0.441289   -0.13877600   -0.05113600
Se   19.54308000   12.14291000    5.28000000     -0.347150    0.21351900   -0.58102300
Se   18.45065000   12.94875000   14.12009000     -0.073524    0.69727300    0.00088100
Se   18.98042000   18.76782000    5.99596000      0.221981    0.04681500   -0.57015400
Se   20.17007000   20.59724000   14.86697000     -0.959726   -0.73733700   -0.03574700
Se    5.78557000    6.97853000    6.62167000     -0.120799   -0.88968900   -0.46868900
Se    1.62542000    5.04990000   16.87405000      1.098681   -0.50719200   -0.23208400
Se    3.87228000    9.69595000    4.88610000     -0.704521    0.17306800    0.48630300
Se    3.79474000   11.55550000   13.73265000      0.026591   -0.58561100    0.21557100
Se    3.24834000   14.07939000    4.92103000     -0.347865    0.60383500   -0.21381500
Se    2.54707000   16.66787000   18.16172000      1.049594    0.64617800   -0.89852600
Se    0.18946000   22.84790000    5.66016000     -0.201223   -0.34693500   -0.21047800
Se    3.80461000   20.92993000   13.93539000     -0.811084    0.74793000   -0.72856500
Se   12.34785000    1.33090000    5.01443000      0.368830    0.00895200   -0.66960000
Se    8.21292000    5.28893000   16.48125000      1.679159   -2.90192000   -0.58450200
Se   11.37771000   11.28140000    6.83351000     -0.343414   -0.49422600   -0.33413200
Se   10.63865000   11.85402000   17.27438000     -0.378950   -0.15084300    0.14536000
Se   10.40438000   15.50362000    9.86088000     -0.886289    0.61786100    0.02411300
Se   11.40799000   19.34294000   18.51871000      0.580599   -0.41548100    0.12671100
Se   11.12948000   21.57466000    3.98203000     -0.646789   -0.16272900    0.38649100
Se    8.08612000   20.89625000   18.36870000      0.688196   -0.29701200    0.79013300
Se   13.57104000    4.74490000    5.77856000      0.114379    0.01481100    0.02992900
Se   15.21416000    5.36408000   17.16819000     -0.433224   -0.06895300    0.36253200
Se   17.13028000   10.10095000    5.59681000     -0.510145   -1.58094200   -0.69897900
Se   17.77195000    7.96694000   13.41170000     -0.652013    0.45670600   -0.12848700
Se   17.33038000   13.55208000    5.69468000      0.925563    0.46123100    0.61159300
Se   12.83168000   18.24840000   15.74914000      0.592599   -0.78609700    0.63716100
Se   16.42445000    0.49726000    4.17733000      0.250958    0.43812100    0.41238400
Se   16.54082000    3.05969000   13.61791000     -0.374013   -0.16835400   -0.09829700
Se   22.40265000    4.17146000    7.23089000     -0.074727    0.16575500    1.09974000
Se   22.56061000    4.55237000   14.46963000      0.126234    0.19138700   -0.54701400
Se   19.40873000   11.06203000    8.24873000      0.076511    0.31563100   -0.20535200
Se   21.94076000   13.13445000   15.38770000      0.045000    0.26072400    0.32913600
Se   20.74918000   14.63036000    7.16906000     -0.498307    0.52934600    0.22193300
Se   22.32741000   17.09691000   15.52013000      0.963758    1.16575900   -0.26424300
Se   21.86074000   21.25498000    7.20941000     -0.618762    0.46416500    0.06976100
Se   22.51694000    0.10831000   19.05787000      0.225244    0.52402200    0.52103700
Se    4.04839000    3.22475000    6.05327000     -0.124096   -0.26809600    0.44292100
Se    6.38499000    0.56661000   15.69245000     -0.130135    0.43912500   -0.32056400
Se    2.93811000    5.25304000    3.33706000     -0.527307    1.10157300    0.03260600
Se    4.96818000    8.33890000   11.85026000     -0.480750    0.03846300    0.65724700
Se    2.73061000   10.33845000    2.18276000     -0.599305    0.69720300    1.02385600
Se    3.76528000   14.80773000   14.35776000      0.408855    0.38755500    0.65022000
Se    4.72113000   19.09914000    0.48581000      0.220768   -0.93362900    0.73303300
Se    4.63434000   18.24594000   13.01080000      0.242249    0.10821100   -0.05704000
Se   10.17764000    1.81165000    2.59741000     -1.273478   -0.93454700    0.03307100
Se   10.88202000    1.55460000   14.87519000     -0.510929   -0.24347000    0.01998800
Se   10.24481000   10.98607000    2.64117000      0.646567   -0.31280200   -0.54169300
Se    8.94621000    9.50778000   16.87788000      0.060977   -0.55067700    0.32977300
Se    8.30577000   12.89333000    4.71130000     -0.334208   -0.20181900    0.15475600
Se   11.39023000   11.38323000   14.17495000      0.243771    0.72628400   -0.98717400
Se   10.16575000   20.67282000    1.71513000     -0.870910   -0.00502600   -0.60305800
Se   10.65999000   21.44470000   15.74839000      0.426684    0.31435500    0.65346900
Se   18.39482000    3.26384000    8.79167000     -0.249184    1.36853800   -0.94520300
Se   14.46113000    1.66341000   15.85976000      0.514073    1.01052300    0.08085000
Se   16.84264000    6.61620000    4.48879000      0.489995   -0.78907000   -0.30317400
Se   13.96796000    7.19238000   14.12926000      0.248665    0.72705500    0.20899400
Se   17.57870000   11.20407000    2.22868000     -1.093670    0.74649500    0.35099600
Se   16.99888000   18.53259000   14.62314000     -0.288092    0.46631300   -0.44251600
Se   15.84549000   16.54734000    4.22418000     -0.147155   -0.32081600    1.04140600
Se   16.26767000   20.67660000   13.62885000      0.133388   -0.11270500   -0.23289500
Se   22.39708000    1.16828000    4.84159000      0.457216   -0.13905000   -0.17562300
Se   22.84374000    1.15647000   12.63777000     -0.668468    0.56475800   -0.48481200
Se    0.59337000    8.42649000    4.97350000     -1.042330    0.19485700    0.07680700
Se   21.03429000    7.70096000   13.70386000      0.192999    0.56639400   -0.70952900
Se   23.22004000   15.99753000    5.80236000     -0.531090   -0.97040000   -0.73335400
Se    0.42361000   12.87086000   14.59140000      0.439688   -0.02563500   -0.10217300
Se   22.99034000   19.18866000    4.00153000     -0.294638   -0.18587600   -0.04462300
Se   21.81853000   21.71532000   12.11930000     -0.259545    0.54119900   -0.69775200
Se    3.03436000    4.14355000    7.94066000      0.433615    0.11031400   -0.88369300
Se    2.35698000    4.12126000   14.40511000     -0.290428    0.18378400   -0.75212500
Se   21.85584000   11.12967000    4.16349000     -0.143570    0.85533900    0.91725000
Se    1.04426000    9.14323000   12.56012000     -0.245780    1.55995800    1.67106200
Se    0.94480000   15.25968000    2.22658000      0.234442   -0.26890700    0.16619700
Se    1.00386000   16.95414000   14.17645000     -0.983032   -0.41313600    0.29794200
Se    3.81236000   21.26192000    1.36247000     -0.300147    1.45517200   -0.02156600
Se    4.82780000   18.59298000   15.48779000      0.109323   -0.22743100    0.57811100
Se   10.74964000    4.27558000    3.75876000     -1.080135    1.32874900    1.87115500
Se    7.30657000    3.43732000   13.46402000     -0.948975    0.11095700   -0.74869300
Se    6.65912000    9.87252000    3.91004000     -0.771868   -0.05716000   -0.96180200
Se    7.27131000   10.87293000   13.77678000     -0.327165   -0.50518400   -0.61495600
Se    8.08343000   16.90750000    2.27823000      1.008769   -0.04601600    0.70809600
Se    9.27764000   15.95158000   13.78418000      0.641963   -0.62884900    0.39621400
Se    8.02341000   21.13826000    8.55867000      0.112347   -0.99909800   -1.29467500
Se    7.09071000   21.60119000   14.96572000      1.013807    0.19999700   -0.70250900
Se   15.13056000    1.83655000    2.58514000     -0.019682   -0.05316900   -0.50351600
Se   11.09195000    5.60358000   13.79564000     -0.198161    0.00198300   -0.15869900
Se   14.36152000    8.91927000   19.28493000     -1.201044    2.27244500   -0.10324500
Se   14.29035000   10.76603000   12.72269000     -0.256174    0.26478600   -1.00530600
Se    9.84651000   16.46237000    5.56279000     -0.641570   -0.46385900    0.37324000
Se   13.07740000   17.63415000   12.74527000      0.141394   -0.27759100   -0.81658500
Se   14.25222000   21.65947000    2.10699000     -0.368642   -0.02556600   -0.21359400
Se   14.44350000   22.93936000   13.35758000      1.369393   -0.98877800   -1.09158400
Se   18.28484000    6.17583000    0.82731000      0.716726   -0.13755500    0.28322300
Se   14.50669000    5.52724000    9.72836000     -0.583973    0.41306500   -0.00734600
Se   20.63965000    7.86714000    3.15988000      0.892728    0.01543000   -0.00127400
Se    0.23321000   13.18609000   11.74493000     -0.256753   -0.80931700    0.41921700
Se   20.17661000   15.65246000    4.08380000     -0.062729    0.00409100   -1.05617000
Se   18.03560000   16.95027000   12.93066000     -0.075880    0.20039900   -0.11526600
Se   19.34733000   22.39999000    4.20792000      0.342863   -0.37886100   -0.14621300
Se   18.40331000    0.03565000   12.80020000      0.089388    0.16965900    0.11434400
