384
23.69824000 23.69824000 19.89960000
Ge    5.38546000    6.02168000   12.56883000     -0.714874    0.35262500    0.33093600
Ge    6.52657000    3.91889000    3.50311000     -0.212158    1.65729200    0.73719800
Ge    1.77174000   12.94730000    7.26393000     -0.418838   -0.63531700    0.13384900
Ge    9.72806000   13.45115000   15.83663000     -0.153607    0.05377200   -0.23042900
Ge    5.40096000   15.29377000   10.03504000     -0.062675   -0.12082900   -0.10548900
Ge    9.17813000   18.53009000   19.07187000     -0.584131   -0.34673100   -0.22260100
Ge    7.62246000   23.44391000   12.53748000      0.656601   -0.62200100   -0.40431400
Ge    4.68416000    0.76788000    0.73368000      1.057398   -0.87183000   -0.14483200
Ge    8.89011000    5.39183000   10.56354000      0.325596   -0.47327600    0.31128400
Ge   12.02975000    6.51186000   19.11452000     -1.854553   -0.73881300   -0.05766700
Ge   10.01738000    7.66497000   10.92129000     -1.960517   -0.11561900    1.63706300
Ge   13.23196000   11.61190000   18.76853000      0.558089    0.11572000    0.10952700
Ge   11.38108000   19.97789000   10.10206000     -0.876644   -0.88731800   -0.24564000
Ge   12.76776000   15.85705000    0.16706000     -0.183982   -0.01210100   -1.11068600
Ge   10.91791000   23.42528000    8.62707000     -0.174535    0.17443700    0.55093900
Ge   16.12241000   22.87151000   18.68259000      0.808360   -0.84178500   -0.39507600
Ge   20.19215000    4.90626000   11.50374000     -0.044716    0.34424600    0.47176900
Ge   19.67409000    8.31369000   18.84188000      0.831051   -0.92722000   -1.46428700
Ge   19.81858000   11.36495000   10.49062000     -0.133773    0.26049500   -0.11529400
Ge   18.79571000   12.48498000   18.50418000      0.496698   -0.49095300    1.22022300
Ge   15.79303000   20.81475000    8.89887000     -0.982472   -0.07181500   -0.14839600
Ge   16.99153000   15.84284000   19.30574000      1.144745    0.06758000    0.81357600
Ge   19.68302000    1.28338000   11.98728000      0.348166   -0.31238300    0.09607900
Ge   20.07379000    3.41918000    2.56933000     -0.217941    0.43172100   -0.24268300
Ge   23.33849000    6.27905000    7.83452000      0.426448   -0.75876400   -0.68563100
Ge    2.33673000    3.81364000    3.64312000     -0.375755    0.17006700    0.08794200
Ge    1.70999000   10.33922000    9.72853000     -0.389324    0.08009600    0.12001300
Ge    1.63900000    8.60740000    0.17197000     -0.720949   -0.60110100    0.98787600
Ge   20.44996000   15.27683000    8.50181000     -0.253629    0.19002800    0.04770700
Ge    0.53424000   14.65669000   19.47169000      0.439266    0.41564800   -0.02101900
Ge   19.18878000    1.46572000    9.25518000     -0.827638   -0.40732900    0.01011500
Ge    0.84411000   20.59494000    0.57549000      0.091857   -0.03083700   -0.43010700
Ge    4.83019000    9.17177000    8.72587000      0.989100    0.10416100   -0.37013600
Ge    1.81282000    4.43739000   19.70999000     -0.290055    0.45664300    0.26412000
Ge    2.12451000    9.50596000    6.29395000     -1.095816   -0.05956100   -0.28391300
Ge    4.57386000   11.47218000   16.86783000      0.387978    0.87526600   -0.23690200
Ge    5.66777000   17.76745000    3.92392000     -0.305650    0.12407800    0.06571100
Ge   22.99191000   17.53298000   18.14910000      0.651349   -0.30930600    1.33839700
Ge    5.04723000   19.89509000    9.83355000     -0.847005   -0.68117300   -0.42753600
Ge    3.83519000   22.17612000   17.41696000      0.409983   -0.92885100   -0.19244200
Ge    9.46614000    2.00587000    7.16570000     -0.591315    1.18524600    0.43169500
Ge    7.73591000    7.90172000   18.46273000     -0.613031    0.66059200   -0.95730100
Ge    6.31594000   12.51842000    6.44501000      0.317259    0.75720500    0.78376000
Ge    8.14788000    8.38353000    1.92133000     -0.033717    0.60539400   -0.06057900
Ge    8.90719000   18.58989000    7.79869000     -0.288273   -0.01265200    0.32945200
Ge    4.46701000   19.71169000   19.68218000     -0.837305   -0.93950800   -0.02185700
Ge   11.38046000   21.77535000    6.39716000     -0.217072   -0.20288700    0.33402500
Ge    9.64462000    3.48459000   17.93020000      0.772808   -1.11266000    0.72283600
Ge   13.45882000    6.49852000    6.40673000      0.370367    0.27385400    0.39073300
Ge   14.19699000    8.52148000   19.72277000      0.037751    0.15782200   -0.74579500
Ge   15.85097000   12.81810000    6.44399000     -0.821743    2.23584900   -0.43274500
Ge   16.95810000   13.87978000   15.51841000     -0.132723    0.68498000    0.16970400
Ge   13.11569000   16.97168000    4.00121000     -0.820872   -1.22389800    0.49242500
Ge   15.53437000   17.97646000   15.58865000     -0.854244   -0.65809600   -0.39430000
Ge   15.13643000    1.04753000    9.15847000     -0.203603   -0.04695900    0.25132300
Ge   15.77489000    5.07940000   18.78640000     -0.409684   -0.35896800    0.07254700
Ge   20.29313000    6.70474000    7.20401000     -1.326312   -0.57967700   -0.30585700
Ge   22.29266000    5.55431000   16.45884000     -1.017104    0.87675000    0.12387700
Ge   20.30973000    9.42846000    8.18089000      0.223893   -0.43389300   -0.17025100
Ge   21.60508000   13.72336000   17.69329000     -0.226317   -0.26098800    0.02914200
Ge   18.64319000   18.67806000    7.25564000      0.284036   -0.36889400   -0.59290400
Ge   20.49532000   19.15793000   16.43201000     -0.234629    0.25987400    0.04766700
Ge   19.77886000    0.38730000    5.48689000     -0.064003    0.96249600    0.49650000
Ge   19.59921000   22.03532000    0.44071000      0.919674   -0.68116100    0.47727100
Ge    5.51431000    2.24095000   11.11600000     -0.285036    0.34334700    0.75115600
Ge    5.18693000    2.96696000   17.49183000      0.587355   -0.27012000    0.05573000
Ge    3.36769000    6.72802000    6.00133000      0.112003   -1.27039300   -0.39812000
Ge    3.01449000   10.16621000   12.44037000     -0.863051    0.83045600    1.01576700
Ge    2.87601000   17.50348000    6.72402000      0.776082    0.14795800    0.00045600
Ge    1.74105000   13.88329000   15.61174000     -1.232363   -0.04590200   -0.42347900
Ge   22.44372000   21.85855000   10.71133000      0.111786   -0.53151900    0.02279000
Ge    2.63168000   22.81468000   14.89163000     -1.741886   -1.42469000   -1.06858500
Ge    9.88165000    3.14594000    2.87026000     -0.352409   -0.38995000   -0.00769800
Ge    9.52395000    1.09208000   16.45057000     -0.343033    0.10712400    0.56572300
Ge    8.72197000   10.67619000    5.79751000      0.506276   -0.34238400   -1.49742600
Ge    7.74294000   10.24297000   15.70358000     -0.319607   -0.40000800    0.84666300
Ge    9.25351000   14.91151000    6.36093000     -0.859564   -0.02397700   -0.21059000
Ge   16.08318000   10.39641000   16.07663000     -0.825526    0.15859700   -0.54321500
Ge    8.25364000   21.22963000    4.87677000     -0.460592    0.30039100    0.14071700
Ge    8.01653000   19.69755000   16.21700000     -0.139934    0.02043800    0.34601000
Ge   14.51737000    1.72400000    5.97496000      0.614322    0.49884800    0.32391300
Ge   13.20612000    2.65802000   16.17950000     -0.533109    0.53171000   -0.85724900
Ge   14.94982000   10.27793000    4.58136000     -0.426745    0.68902700   -0.06451500
Ge   15.62954000    7.09217000   14.85169000      0.088657    0.16728300    0.43531600
Ge   15.55025000   14.48148000    3.37941000      1.759310   -0.82186500   -0.29958000
Ge   12.29725000   16.31430000   15.32786000     -0.198830   -0.43296600   -0.04152800
Ge   13.97601000   19.74153000   18.16169000      0.532929   -0.03698300   -0.00758700
Ge   10.20608000   21.52866000    0.97806000     -0.724298   -0.18368300   -0.45922200
Ge   23.24909000    4.50743000    4.01968000      0.478254   -0.36566000    1.04666200
Ge    0.02777000    2.54891000   14.51305000      0.238070   -0.19773900   -0.88708100
Ge   21.49479000    8.90940000    5.71483000      0.520578   -0.39601400    0.39575900
Ge   21.17791000   10.49577000   14.10900000      0.349967   -0.72530000    0.14116400
Ge   22.27205000   16.09476000    5.70837000      0.180820    0.71560900   -0.16532300
Ge   19.61066000   14.04074000   12.69678000     -0.211655    0.60898300    0.18967600
Ge   19.93898000   20.94496000    5.86587000     -0.011657   -1.03914800    0.85655600
Ge   21.09534000   23.52035000   17.60010000     -0.631425   -0.04505900   -1.16128500
Ge    6.07708000    4.18784000    6.14373000      0.500083   -0.71194600    0.01949400
Ge    2.73923000    2.86372000   14.07610000     -0.103230    0.15568600   -0.74219500
Ge    5.47934000   11.11755000    3.05339000      0.069086   -0.06609300    0.30710000
Ge    6.90313000    9.17498000   12.62962000      0.638667   -0.49331100    0.41645500
Ge    5.00260000   15.12315000    0.41484000     -0.335471    0.61642100    0.98244200
Ge    4.21008000   13.35624000   13.42315000      0.157208   -0.44814800   -0.13170800
Ge    4.80323000   22.75913000    5.81581000      0.812375   -0.38038500   -0.20818300
Ge    5.82178000   21.61231000   14.54089000     -0.189442   -0.72817800    0.17306500
Ge   15.15810000    5.89343000    3.60174000      0.139596    0.49229900   -0.47587300
Ge   13.41132000    0.02815000   12.64156000     -0.166656    0.19178200   -0.87826800
Ge   10.82847000   10.18780000    1.19819000      0.269144    0.61499000   -0.37039900
Ge   13.66760000    9.02623000   11.69083000      0.116779    0.77172800   -0.02908100
Ge   11.12204000   12.92231000    1.97328000      0.132859    0.39359500   -0.30045200
Ge    8.10400000   17.45891000   11.44973000      0.711018   -0.76707300    1.01169100
Ge   12.67546000   21.97179000    1.55458000      0.851989    0.08191300   -0.00139200
Ge   11.17955000   22.90311000   14.29613000      0.369266    0.64742500   -0.96320300
Ge    0.94820000    0.74749000   18.56564000      0.850333    1.08085900    0.34394600
Ge   12.55298000    5.50516000   12.32242000     -0.995899    0.32129600    1.14140200
Ge   17.12992000    6.47903000    0.49678000      0.643882    0.22277400    0.65280800
Ge   12.30875000    6.99551000    8.77166000      0.152553   -0.58830800   -0.35724700
Ge   20.93074000   13.89551000    2.68615000      0.653598   -1.99668600    0.14305300
Ge   15.91527000   17.53046000    8.79761000     -0.085256   -0.01650200   -0.77456500
Ge   17.72955000   20.99589000    3.72190000     -0.015863   -1.34457100   -0.33271100
Ge   19.19449000   21.25623000   13.35494000     -1.723644    1.05943600    0.04014100
Ge    0.58336000    0.68692000    3.57568000     -0.104091   -0.19643600   -0.79255200
Ge   23.00204000    1.91830000    9.85441000     -1.142698    0.02693700   -0.21835100
Ge   23.40631000   10.70637000    1.90682000     -0.257651   -0.05521400    0.17494600
Ge   23.30746000    8.99056000   13.17341000      0.681204    0.58500800   -0.40914500
Ge    3.14156000   13.57538000    2.72685000     -0.602414    1.06233400    0.92368500
Ge    0.55581000   16.70307000   11.36563000      0.391198   -1.14231300    0.14590100
Ge    0.00174000   21.98190000    4.80427000     -0.104421   -0.41612000   -0.14124100
Ge   20.93137000   18.16429000   11.75322000     -1.103779   -1.65142400   -0.30813500
Se    3.03271000   22.93269000   19.58683000     -1.435548   -0.11483000    0.56822200
Se    1.62334000    1.65989000    9.66796000      0.453163   -0.35660400   -0.21419500
Se    1.55531000    6.28897000    1.89758000     -0.045480   -0.47560800   -0.60050300
Se   23.25082000    9.62832000   10.72611000     -0.158597    0.22776600    0.42970600
Se   22.04864000   12.41294000    0.62212000     -0.050664   -0.06913700    1.44064800
Se    0.06224000   14.21113000    8.55898000      0.427293    0.30425800   -0.16938800
Se    1.49721000   19.79954000    4.43134000     -0.212119    0.05766300   -0.20668400
Se   23.08602000   18.82180000   11.42184000      1.360861    1.23391600    0.07751300
Se    6.93033000    1.73464000    2.89076000     -0.064038   -0.64752600   -0.70073500
Se    5.38438000    3.74055000   13.64007000     -0.752814   -0.65044900   -0.44099800
Se    9.31352000    4.43139000    5.24612000      0.289546    0.97970800   -0.56565600
Se    7.93892000    9.26450000   10.18572000     -0.123758   -1.04033700    0.60453300
Se    7.92914000    9.99146000    0.02258000      0.490226    0.24501200    0.64821200
Se    7.00353000   15.25233000   11.90825000      0.207047    0.42520200    0.02618700
Se    7.04076000   20.18022000    2.91550000     -1.156985    0.19775100   -0.08435000
Se    8.76958000   20.73647000   12.44806000      0.534766   -0.60956200    0.21914900
Se   12.07701000    0.77267000   19.61314000      0.172856    0.06952300   -0.15290800
Se   12.97708000    2.38795000   11.71709000      0.707875    0.45000200    0.91984200
Se   11.57973000    8.90103000   18.68888000      0.731584    0.01445900    0.20020300
Se    9.17730000   10.61401000    8.07031000     -0.003233    0.10393300    1.07955100
Se   13.38964000   13.47403000    0.60805000     -0.118662   -0.19728800    0.21493600
Se   11.42990000    9.02408000    9.76959000      1.552673    1.14634100   -0.54969900
Se   14.87556000   17.02243000    0.44693000      0.097001    0.65195100    0.10195600
Se   11.62969000   20.53444000   12.53374000      0.040725   -0.77983200   -0.63972300
Se   18.14463000    4.03762000    4.82936000      0.310465   -1.06745400   -0.83131800
Se   13.90631000    3.99076000   13.69788000     -0.016897   -1.20753900   -0.43664700
Se   15.38039000    5.08470000   16.34759000      0.017696   -0.48071500   -0.38714000
Se   20.02715000    3.36149000   13.54873000     -0.349169    0.03850700   -0.57931900
Se   19.62351000    9.54269000    0.88147000     -0.194721    0.95709200    1.69936200
Se   16.21205000   19.26119000    6.75818000     -0.305482    0.12540200    0.90899400
Se   19.24631000   18.04844000    0.64764000     -0.431912    0.88692100    0.07117100
Se   20.18845000   19.13625000    9.43501000     -0.312543    0.13550800    0.34718000
Se    3.58551000   23.53920000    3.93156000      0.183370    0.03286700   -0.72364800
Se    2.71749000    6.36448000   11.05473000      0.445581    0.15492500    1.14539600
Se    5.72768000   11.77189000    0.56273000      0.205313   -0.79400800   -0.42064500
Se    4.90719000   12.88174000   10.85133000     -0.131027    0.02571400   -0.05221600
Se    3.55106000   12.93221000    0.44074000      0.025647    0.12467600   -1.15107400
Se    3.34023000   16.94094000   11.06907000     -0.065131    0.25356400    0.61616400
Se    6.04020000   21.77005000   19.45656000     -0.535467    0.14222600    0.14315300
Se    5.34879000   20.13428000   12.20045000     -0.149140    0.01829100    0.59983200
Se   10.55346000    5.65164000    1.58501000      0.737323    0.85046300   -0.18346400
Se    8.05923000    2.30497000   10.75468000     -0.620466    0.35383600    0.15406600
Se   10.78300000   11.93017000   18.37679000     -0.670989    0.95110500    0.49872100
Se   10.11239000   11.87172000   11.24011000      1.046844   -0.19972000    0.68015600
Se   11.71148000   15.73858000    2.29589000     -0.371291    0.15743000    1.12919600
Se   12.21419000   15.79605000   12.61910000     -0.328025   -0.18015200    0.88157400
Se   10.75442000   23.26372000   18.10079000      0.035335    0.19269700   -0.45014800
Se   10.10509000   23.39587000   11.41581000     -0.383128   -0.40795800    1.06275600
Se   12.04761000    4.28342000   17.76969000     -0.170666   -0.46969000   -0.23514700
Se   17.57182000    8.31457000    9.18657000      0.745957    0.08189300    0.47202400
Se   16.82382000   10.38811000    3.04967000      0.460368   -0.29317000   -1.13305800
Se   18.49560000   13.58111000   10.52044000     -0.141306   -0.10202900   -0.28546500
Se   19.50165000   15.58453000    2.18397000     -0.681142    0.31854200   -0.04077900
Se   13.97626000   16.02384000    8.00502000      0.378348    0.49957900    0.16423800
Se   17.90965000    0.00911000    0.16250000     -1.054388    0.86692900    0.24958800
Se   16.87215000    0.82632000   10.71967000      0.753403    0.06164900   -0.23357300
Se    0.54627000    2.19905000    0.90124000      0.871401    0.25222600   -0.18259900
Se   21.96607000    4.17754000    9.98842000      0.797236   -0.55028200    0.15686500
Se   22.00245000    4.89634000    2.03616000     -0.454285    0.10369800    0.05004800
Se   21.42903000   12.21011000   12.40521000     -0.309227   -0.23206800   -0.43732000
Se   23.19320000   14.06469000    4.01097000     -1.099129   -0.19708100    1.15022400
Se   21.42339000   15.35916000   11.71309000      0.183411    1.50488100   -0.81023000
Se   22.80749000   21.66588000    2.29678000      0.753642    0.79393600    0.60945800
Se   21.70816000    0.08263000   15.08301000     -0.285997   -0.17931300    0.28927600
Se    4.15864000    3.49920000    9.63292000     -0.219987    0.32355700   -0.75294900
Se    4.30345000    5.90975000   18.95598000      0.002086   -0.09326100   -0.42261800
Se    4.48679000   11.70566000    8.45171000     -0.530377    0.55086500    0.31730900
Se    4.21514000    6.72430000   14.88270000      0.782202    0.41888200   -0.14824700
Se    6.97356000   19.42151000    6.19670000      0.079895   -0.27525700    0.00685800
Se   21.93624000   15.48206000   19.68287000     -0.246790    0.32784900   -1.01996700
Se    1.31730000   21.89466000   10.97992000      0.691470   -1.31891400    1.73880900
Se    2.61238000   19.83360000   17.94241000      0.406710    0.22880000    0.46267100
Se    7.31249000    3.03153000    8.16125000      0.241326    0.34881900   -1.51904100
Se    5.92847000    4.00704000   19.58129000     -0.662371    0.59620800    0.75817300
Se    6.40281000   10.05821000    6.06499000     -0.775024   -0.49015900   -0.30895400
Se    3.83482000    9.69578000   19.07992000      0.646762   -0.23281900   -0.30256400
Se    6.89413000   18.11838000    9.53989000     -0.811656    0.59328200   -1.10647600
Se    6.13937000   15.28659000   18.19012000     -0.037833    0.11909300   -0.33031500
Se    9.24948000   20.85124000    9.08471000      0.748591   -0.06266000    0.00575600
Se    9.04453000    3.06959000    0.40852000     -0.347447   -0.28165400   -0.80741000
Se   14.56713000    3.19502000    8.18387000     -0.134165   -1.12048800   -0.18982200
Se    8.71122000    5.41770000   16.99640000     -0.131361    0.64883700    0.01469200
Se   10.68358000    5.22726000    8.77768000     -0.122544    0.00865100   -0.30186000
Se   18.50625000   10.87810000   16.60233000     -1.301725    0.90896200   -0.62171400
Se   12.89687000   19.81807000    8.19120000      0.469604    0.23570800    0.41607900
Se   15.77592000   16.03470000   17.27538000     -1.189701   -0.02349100   -1.46117200
Se   15.86597000   23.45456000    7.21330000     -0.314292   -0.28286400   -0.44431900
Se   18.98139000    3.32691000   16.75929000     -0.203985    1.46954000   -0.91765800
Se   17.83426000    4.36859000   10.66572000      0.130912   -0.23304200    0.27380700
Se   23.32078000    3.39049000   16.71410000     -0.017870    0.10137300    1.33635600
Se   19.14183000    8.86856000   12.79503000      0.625045    0.73064300   -0.26686700
Se   20.44880000    9.61567000   16.56807000      0.376309   -0.76990200    0.07327700
Se   15.55408000   18.93702000   11.03156000     -0.087243   -0.24984700   -0.08726400
Se   18.70407000   14.54894000   17.39397000      0.801307    0.67220800   -0.76759300
Se   18.56186000   22.97928000    7.71239000      0.063740    0.17434200   -0.16932300
Se   17.82764000   20.38062000    0.92378000      0.158839   -0.71050300    0.96066900
Se    4.78539000   22.02935000    8.81963000     -0.171628    0.54350300   -0.15500300
Se    3.57258000    2.90493000    0.87022000     -0.671830    0.83452000    0.23930700
Se    6.92505000    6.92123000   10.10053000      0.077492    0.58064700   -0.08034000
Se    4.80478000    7.76148000    0.54553000      0.357171    0.24305100    0.58049200
Se    5.17670000   15.95128000    6.39964000      0.817443    1.90549500    0.71189700
Se    7.12997000   12.15503000   17.12631000     -0.192611   -0.47397500   -0.16375400
Se    2.69310000   19.12690000    8.62444000      0.760139   -0.07332800    0.65862300
Se   21.98930000   19.73784000    1.31024000     -0.373541   -0.93594300   -0.50539500
Se    8.76350000   23.52031000    7.00226000      0.358513   -1.19058700    0.26444600
Se   12.09354000    4.12092000    2.54540000      0.929600   -0.02590800    0.05577500
Se   10.60737000    2.29121000    9.30155000      0.781850   -0.62971800   -0.30380300
Se    8.33087000    6.38722000    0.32582000     -0.170337    0.13414200    0.60027000
Se   10.90134000   13.88490000    7.68198000      0.910753    2.53290800    1.51411100
Se    9.28553000   13.45205000    0.30850000      0.169842   -0.34391000    0.18956600
Se   13.71073000   22.94622000   10.16872000     -0.221622    0.39870800    0.35689900
Se   15.04054000   12.49649000   16.90385000      0.530960   -0.40951600   -0.14269500
Se   18.14601000    2.92498000    7.08148000     -0.197908   -0.23603100   -0.26029600
Se   16.73535000    4.26590000    1.63046000     -0.024243    0.35084900    0.46475100
Se   15.34278000    8.15261000    8.94918000     -0.412391   -0.05854400   -0.14900300
Se   15.36980000    8.26965000   17.10757000      0.245288    0.76996200   -0.34943500
Se   15.16284000   14.13246000    8.58003000     -0.012465   -0.98447700   -0.22655200
Se   16.55378000   13.11126000   19.53331000     -0.411589   -0.76406200    0.26656400
Se   13.70956000   19.96218000    2.92466000     -0.227823    0.39939100    0.92237300
Se   19.70899000   21.43730000   17.90996000      0.107611    0.40874600   -0.74344300
Se   22.02373000    0.93619000    7.60659000      0.023406    0.01847200    0.65238600
Se    0.46917000    0.41082000   15.74689000      0.085366    0.06468400    0.32206900
Se   21.51091000    7.35134000    9.25542000     -0.345457    0.70524900    0.06380600
Se   22.94457000    8.04133000   16.82647000      0.128521   -0.25268400    0.49645800
Se    0.13980000   10.72199000    7.68330000      1.001634    0.80150300   -0.13395000
Se   22.27997000    8.70249000   19.09755000      0.282730   -0.57810200   -0.57799700
Se   21.44017000   17.51650000    8.00200000     -0.196930   -0.18333400    0.51117500
Se   18.72717000   17.81667000   18.30142000      0.160107   -0.14308000    0.29247100
Se    1.09592000   22.92037000    9.06033000     -0.029963    1.40297300   -1.31286800
Se    2.76300000    0.64164000   12.67120000      0.200267    0.27171400    0.45778500
Se    2.56119000    8.16212000    8.33487000     -0.414251   -0.17724800    0.66800700
Se    2.52321000    8.03815000   17.85422000     -0.177710   -0.05638200   -0.59588300
Se    1.46618000   16.24289000    8.80574000     -0.362346   -0.38476300   -0.51639700
Se    0.89305000   12.88516000   17.80302000     -0.271114    0.24838700    0.40975800
Se    3.62855000   19.68508000    5.39737000      0.196918    0.30659300   -0.05161600
Se   22.94986000   19.51060000   16.66390000      0.078270    0.08473000    0.63446600
Se    6.84525000   23.54099000    4.35842000      0.192000   -0.83462800    0.67740600
Se    5.98677000    0.67190000   18.29171000     -0.444513    1.03331200   -0.19141300
Se   11.46145000    6.15384000    5.26523000     -1.067259    0.24265200   -0.62914100
Se    6.16850000    7.94750000   15.75124000     -0.059431   -0.27794200    0.07861900
Se    7.31589000   14.69717000    7.96016000      0.457889    0.17795900   -0.11269100
Se    8.56227000   18.36237000   13.70200000     -0.105086    0.94467700   -0.72223100
Se    7.58924000   16.48387000    3.00149000      0.601943    0.28981900    0.02626300
Se    9.40267000   15.85718000   15.10922000     -0.140319   -0.27117800   -0.55201800
Se   14.37089000   21.69005000    4.76063000      0.434788   -0.89440500   -0.21404900
Se   13.83239000   22.70711000   15.97392000      0.289174   -0.43889500   -0.92367200
Se   13.73471000    8.06337000    4.38990000     -0.507771   -0.59091600    0.24689400
Se    9.44162000    7.84901000   13.55611000      0.387731   -0.74789500   -0.95429200
Se   14.10734000   12.93898000    4.56099000     -0.793938   -0.85598800    0.82556000
Se   14.49077000   15.22158000   14.69018000      0.168626    0.78475800   -0.35197600
Se   11.67574000   18.93985000    4.01010000      0.583579    0.30586600   -0.21721200
Se   16.46106000   20.71186000   17.47684000     -0.200146    0.10545800   -0.00501900
Se   17.73258000    1.59005000    4.40185000     -0.084224    0.48789100   -0.22151700
Se   19.62821000    1.90238000   18.28399000      0.403428   -1.22647600    1.12251900
Se   19.78039000    7.70369000    4.44471000      0.250229    0.09828500   -0.53870400
Se   19.88771000    5.68229000   17.37299000      0.571431   -0.60321400   -0.38798200
Se   20.29450000   11.91898000    4.38415000     -0.709726    0.90859900   -0.42391000
Se   16.57745000   12.64894000   12.18256000      0.247645   -1.08783400    0.31454800
Se   19.27803000   18.05409000    4.41206000      0.365634    0.44382100    0.20514700
Se   21.11163000   20.29057000   14.10716000      1.184041   -0.02573000    0.45464200
Se    5.47077000    6.21152000    7.14195000      0.081209    0.76602900    0.14848200
Se    3.07087000    3.92057000   17.00131000      0.014908   -0.51406200   -0.09729800
Se    3.19478000    9.98432000    3.08828000      0.026047   -0.04250500   -0.10102700
Se    5.01652000   10.88829000   14.46204000     -0.863260    0.48465300   -0.99395600
Se    4.48581000   14.04241000    5.59515000     -1.375428   -1.65177000   -1.36335600
Se    1.53970000   16.95422000   18.83987000     -0.220691   -0.35922200   -0.11742800
Se    1.98879000    0.02750000    5.63327000     -0.243506    0.22851700    0.97076000
Se    3.37329000   20.45836000   13.65339000      0.434917    0.44237000    0.07514400
Se   12.39171000    0.45696000    6.31599000     -0.328835   -0.18629100    0.26155500
Se    6.93139000    4.15013000   16.08307000     -0.523292   -0.27083100   -0.54902200
Se   11.09894000   11.77413000    7.29297000      1.252863   -2.26706700   -0.88774000
Se   11.20502000   14.33917000   17.57532000      0.244673   -0.31184700   -0.27601100
Se   10.29820000   17.40420000   10.31745000      0.308752    0.42079200   -0.14514000
Se   11.15022000   19.74881000   18.71644000      0.685105    0.59598400    0.51811800
Se   10.66275000   21.51699000    3.91713000     -0.586338    0.29726700   -0.34266100
Se    8.07645000   20.95087000   18.76900000      0.802442    0.06913100   -0.85252300
Se   15.32321000    4.99316000    5.94920000      0.186171    0.26736800   -0.03844300
Se   13.88440000    6.08107000    0.54312000      1.376907   -0.24247600    0.82536900
Se   16.32406000   10.63190000    6.60403000      0.403600   -1.36938900    0.96803300
Se   18.13165000    7.06534000   13.75453000     -0.752627   -0.78281200    0.28437300
Se   17.38398000   14.14078000    5.19124000      0.122932    0.26207900   -0.47251000
Se   12.70134000   18.68963000   15.68385000      0.905128    0.02874000    0.05662600
Se   15.96008000   22.61659000    3.29761000     -0.298438    1.12575800   -0.15127100
Se   17.65633000    3.47383000   13.04845000     -0.086369   -0.00271400    0.88320800
Se   21.47718000    4.70271000    6.50492000      1.478407    0.24207400   -0.67783000
Se   22.60121000    5.25773000   14.09298000     -0.127748    0.88038900   -0.98508800
Se   17.59650000   10.28357000   11.40543000     -0.119837    0.42437600    0.07570600
Se   22.26681000   14.37145000   15.36285000     -0.188892    0.44894800    0.31759000
Se   17.90610000   16.23993000    7.61646000      0.276989    0.17971200    0.47954900
Se   22.22594000   16.76512000   16.11090000     -0.305322   -0.56876600   -2.14335800
Se   21.02352000   22.69756000    8.72081000     -0.158732    0.31320800   -0.85402200
Se   22.76852000   23.08805000   19.16429000     -0.124374   -0.55838500    0.44181500
Se    4.22463000    2.76135000    7.07777000     -1.058518    0.68509500    0.53326000
Se    4.65575000    0.13204000   14.95602000      2.112254    1.47187000    0.13117800
Se    4.12934000    5.43702000    3.64670000      0.338993    0.00872500    0.15395300
Se    4.71125000    9.13853000   11.21466000      0.673593   -0.75480000   -0.69188700
Se    1.58060000   11.76805000    3.57194000      0.131853   -0.44468700   -0.19481900
Se    4.09248000   14.33535000   15.90670000      0.442076   -0.48081500   -0.02119900
Se    3.65579000   17.07110000    1.40052000      1.051577   -0.50377100   -0.00519000
Se    3.53109000   16.70720000   13.49120000     -1.165759   -0.43784900   -0.21221000
Se   11.10527000    0.61329000    1.94938000     -1.133328    0.56838700   -0.22007800
Se   11.06819000    1.97309000   14.73824000      0.493602   -0.69343200    0.19785500
Se   10.11127000    9.58476000    3.44863000     -0.859596   -0.83134500    0.07110100
Se    9.57491000    8.81424000   16.88488000     -0.766370   -0.02077900   -0.22279900
Se    8.60320000   12.99303000    4.95213000     -0.288025    0.27561400   -0.86320600
Se   12.17960000   11.18815000   12.42634000     -0.424690    0.14489900   -0.27312600
Se    8.65561000   19.38275000    1.50923000      1.439508   -0.91690600    0.83376700
Se    9.03742000   22.26329000   15.34411000     -0.652658    0.48989800    0.17170800
Se   19.08763000    4.50941000    8.50233000      0.336675    1.09667700   -0.34673000
Se   14.91258000    0.65630000   17.21887000      0.040905    0.87837700    0.20722500
Se   16.99128000    7.76896000    2.87758000     -0.357041   -0.46492600    0.00929700
Se   13.38697000    7.67640000   13.83251000     -0.561235   -0.51607400   -0.07064500
Se   17.55088000   12.87336000    1.76182000     -0.433227    0.10851800    0.77762800
Se   19.38960000   18.15392000   13.74305000     -0.275335   -1.02243800    0.45263600
Se   15.32153000   16.96616000    3.21588000      0.470769    0.83727300   -0.15880800
Se   16.97914000   20.11458000   14.28784000      0.687931    0.82228400   -0.48454600
Se   22.67152000    1.87209000    4.80525000     -0.793205    1.19697000   -0.24337400
Se   22.33199000    0.44062000   11.70409000     -0.239314    1.05514700    0.63644200
Se    0.06250000    7.59035000    5.59182000     -0.315064    0.50347800    0.26617800
Se   21.69824000    7.16803000   12.65910000      0.178063   -1.14185700    0.72309000
Se    0.47448000   17.92391000    6.69358000     -0.698576   -0.43178700   -0.45239500
Se    0.71884000   11.44901000   14.29555000      0.418855    0.60563200   -0.23940200
Se   22.36521000   20.49628000    6.29639000     -0.017806    0.48462600    0.07274500
Se   19.67767000   21.80301000   11.08994000     -0.653386   -0.37375500   -0.19708100
Se    2.14708000    4.18765000    6.83655000      0.837327    0.03223500   -0.81420000
Se    1.62654000    4.51074000   11.81695000     -0.034848   -0.99171200    0.33129200
Se   22.38906000   10.93716000    4.64074000      0.235025    0.14693400   -0.78692900
Se    2.13003000    7.86369000   13.11931000     -0.504690   -0.27804100   -0.06872600
Se    0.59950000   14.85011000    2.19461000      2.247279    1.03453800   -0.88905400
Se    1.10826000   16.33825000   13.93846000      1.305405   -0.05012800    0.55752800
Se    2.73566000   19.74419000    1.98996000      0.167049    0.00186700   -0.34348100
Se    6.79039000   17.47422000   18.76717000     -0.451366    0.06351400   -0.28795000
Se   11.01706000    2.61372000    5.33087000     -0.049692   -0.49804600    0.64045800
Se    8.01835000    2.12445000   13.14005000      0.376947    0.21776400    0.70384000
Se    5.97514000    8.61073000    3.17801000      0.441749   -0.12001000   -0.09073800
Se    8.72261000   10.74608000   13.60501000      0.330379    0.15414500   -0.62175500
Se    7.00538000   14.50395000    1.95050000     -0.239933   -0.66316200   -0.26162800
Se   10.14450000   14.46124000   13.08495000      0.506050    0.42626800    0.26242000
Se    6.00280000    0.16879000    9.90351000      0.633679   -1.06433600    0.17558500
Se    5.61631000   19.63759000   16.52296000      0.144237    0.65601300   -0.79178000
Se   13.30051000    0.43158000    2.70598000      0.574595   -0.26265200    0.12484600
Se    9.72459000    5.21498000   13.33776000      0.340540    1.12314800   -0.49479900
Se   13.85327000   10.53697000    1.14960000     -0.392400   -0.23459000    0.57120000
Se   15.12038000   10.91621000   13.63303000      0.092795   -0.04972900   -0.03353500
Se   10.31914000   17.00743000    5.85510000     -0.010832   -0.14239400    0.14545600
Se   13.38963000   18.60009000   12.24476000      0.541535    0.51476900   -0.49422500
Se   14.67687000   21.50517000    0.06508000     -0.649513   -0.64062100    0.75836500
Se   15.40582000   22.47007000   14.08796000     -0.576492   -0.34713400    0.31663800
Se   19.29732000    5.22466000    0.30464000     -0.702677   -0.24874100   -0.03894000
Se   13.92831000    6.25386000   10.42626000      1.121159    0.21656200   -0.57365800
Se   20.56581000    7.58192000    2.13130000      0.280180    0.46775200    0.41754600
Se    1.77358000   12.85904000   12.54631000     -0.023832   -0.13832100    0.77563500
Se   21.47611000   18.37338000    3.52331000      0.075961   -0.73435500    0.71487200
Se   18.16766000   15.81217000   13.93072000      0.007853    0.29380100   -0.48032600
Se   19.91106000   22.23081000    3.78756000      0.120355    0.50611800   -0.97984400
Se   19.19752000    0.01956000   14.11572000     -0.206774   -0.37816800    0.40831000
