384
23.69824000 23.69824000 19.89960000
Ge    5.27481000    6.27099000   12.52324000     -0.040111   -0.33521300   -0.77923700
Ge    6.61036000    3.94164000    3.54372000      0.073670    0.63751000    0.21520000
Ge    1.63795000   12.87854000    7.38008000      0.415646   -0.62197800   -0.48566200
Ge    9.80563000   13.43458000   15.82939000     -0.908704   -0.83592700   -0.82073000
Ge    5.27847000   15.24244000   10.09042000     -0.035605    1.51992200   -0.77882500
Ge    9.40185000   18.55198000   19.12832000     -0.827961   -0.05963400   -0.16743300
Ge    7.61236000   23.15801000   12.43314000     -0.131581    0.23799300    0.66452600
Ge    4.96077000    0.50399000    0.72607000     -1.106839    0.19719300    1.31661300
Ge    9.00838000    5.26209000   10.67131000      0.078507   -0.08133000   -0.45364400
Ge   12.02211000    6.39935000   19.19913000     -0.372712   -0.17277400    0.95255400
Ge    9.96386000    7.71563000   10.85589000     -0.283828    0.49620700    0.73151100
Ge   13.26228000   11.60692000   18.79883000      0.133612    0.42960400   -0.28389600
Ge   11.48613000   20.15418000   10.14452000     -1.815503   -1.08109100    0.85399700
Ge   12.67205000   15.75794000   19.62390000     -0.184707    1.07250200    0.78200700
Ge   10.95185000   23.41834000    8.80796000     -0.080909   -1.16375800   -0.93051200
Ge   16.31303000   22.70258000   18.70888000     -0.878443    0.04650400   -0.40390900
Ge   20.28813000    4.93641000   11.63025000     -0.142418    0.25663500   -0.81712800
Ge   19.81422000    8.24795000   18.81722000      0.361173    0.21377000    0.07763000
Ge   20.00855000   11.26576000   10.67954000     -0.612578    0.10067000   -0.48047300
Ge   19.01544000   12.54500000   18.64549000      0.083606   -0.35353900    0.13028300
Ge   15.61170000   20.83156000    8.85146000     -0.848964    0.17586700   -0.03151400
Ge   17.08387000   15.97967000   19.15655000     -0.116758    0.14792400    0.04067600
Ge   19.73326000    1.07734000   12.06874000      0.522799    0.15001800   -1.49257300
Ge   20.19677000    3.53319000    2.63875000     -0.294971    0.57063400   -0.51003400
Ge   23.42981000    6.24553000    7.48170000     -0.257328   -1.70203500    2.45809200
Ge    2.19934000    3.83576000    3.45169000      0.350518    0.80503300   -0.30099700
Ge    1.60116000   10.41471000    9.80789000      0.349028   -0.54787000   -0.21154300
Ge    1.56070000    8.50137000    0.24377000      0.144558   -0.29302100    0.02103900
Ge   20.59620000   15.21887000    8.46170000     -0.890038    0.14552600    0.00089300
Ge    0.40903000   14.56870000   19.45034000      0.874844    0.58951100    0.63664400
Ge   18.91201000    1.35813000    9.26981000     -0.177878   -0.03660000    0.37766200
Ge    0.81055000   20.48938000    0.52485000     -1.229924    0.86117000   -1.65238100
Ge    5.11430000    9.18687000    8.56752000     -0.568733    0.29084500    0.11134900
Ge    1.96571000    4.32688000   19.79435000     -0.818486    0.88329600   -0.32121600
Ge    2.17654000    9.28330000    6.08827000     -0.636726   -0.32040800    0.63200300
Ge    4.68125000   11.35664000   16.74640000      0.473055    1.08070300   -0.17463100
Ge    5.65780000   17.71882000    3.86920000      0.127599    0.00430700    0.09275800
Ge   23.12685000   17.35562000   18.40912000     -0.026760    0.84425400   -1.73904000
Ge    4.99664000   19.92985000    9.76536000     -0.458199   -0.03462300    0.51120400
Ge    4.07356000   22.04702000   17.40521000      0.196970   -0.23277300    0.12887300
Ge    9.34270000    2.10835000    7.16513000      0.604659   -0.96756200   -0.52486400
Ge    7.66064000    8.04510000   18.29100000      0.165445   -0.00746900    0.52106200
Ge    6.30126000   12.67977000    6.66593000     -0.245967   -0.29214800   -0.27447900
Ge    8.05083000    8.35291000    1.96597000      0.075092    0.39617400   -0.37781800
Ge    9.04021000   18.41463000    7.91125000     -0.763486   -0.03758900    0.38346200
Ge    4.28731000   19.63054000    0.05655000     -0.001683   -0.71278100   -1.13153400
Ge   11.42936000   21.45600000    6.44201000     -0.552058    1.07124700   -0.02075200
Ge    9.66616000    3.43608000   18.06667000      0.468871    0.97997300   -0.88796400
Ge   13.33307000    6.58608000    6.47196000      0.615766   -0.89651300    1.08240200
Ge   14.16953000    8.72893000   19.78004000      0.044643   -0.09153000   -0.07311900
Ge   15.87280000   13.24530000    6.46218000     -0.311272   -1.84378600   -0.20004400
Ge   16.93889000   13.70789000   15.52598000      0.604256    1.07231900   -0.09955800
Ge   13.09347000   16.87372000    4.09961000      0.169191   -2.06223000   -0.04532100
Ge   15.30045000   18.10814000   15.20440000      0.278606   -0.99200100   -0.41607700
Ge   14.99024000    1.06540000    9.17336000      1.001750   -0.15478100   -0.02891100
Ge   15.71076000    4.95770000   18.88343000      0.072952    0.05770300    0.74686400
Ge   20.25824000    6.67111000    7.15342000     -1.140019    0.07247800    0.28617700
Ge   22.23957000    5.64579000   16.44544000     -0.124276   -0.81386000   -1.00770400
Ge   20.40954000    9.29534000    8.28026000     -0.152566    0.20513600   -0.42815600
Ge   21.51411000   13.76961000   17.80947000     -0.039656   -0.25050500   -0.77691800
Ge   18.68423000   18.89735000    7.35075000     -0.343460   -1.40325300   -1.14023100
Ge   20.54695000   19.43159000   16.52431000     -0.725895   -0.36289600   -0.88870100
Ge   19.65638000    0.58619000    5.64341000      0.293523    1.01351900   -0.45712700
Ge   19.71155000   22.16456000    0.41429000     -0.486902   -0.06495100    0.66467300
Ge    5.26034000    2.21539000   11.25911000      0.285774   -0.26080900    0.44425900
Ge    5.11954000    2.98058000   17.57040000      0.409595    0.15598600    0.75820000
Ge    3.49058000    6.61515000    5.97363000      0.026170   -0.59947100    0.47921100
Ge    2.87403000   10.27230000   12.39935000     -0.387596    0.42547100    0.86330200
Ge    3.05662000   17.67091000    6.70953000      0.368101    0.81340800   -0.13930800
Ge    1.57873000   13.80275000   15.59732000     -1.860569   -0.19681900   -0.48934600
Ge   22.48700000   21.99478000   10.82891000      0.280981   -0.77133900   -0.18273100
Ge    2.36807000   22.69225000   14.84313000      0.699305    0.31089100   -0.98040600
Ge    9.86837000    3.37469000    2.70155000     -0.547794   -0.29406900   -0.25443000
Ge    9.45541000    1.40420000   16.51870000     -0.183561   -1.34535400   -0.32629000
Ge    8.77393000   10.55098000    5.52281000      0.027435   -0.00484900    0.89984300
Ge    7.72613000   10.07893000   15.70055000      0.354616    0.66786200    0.18870800
Ge    9.17274000   14.87945000    6.51864000      0.427137   -0.80505100   -0.57686200
Ge   16.04195000   10.23348000   16.15543000      0.680644    0.48353100   -1.17758100
Ge    8.23862000   21.34146000    4.80338000      0.118073   -0.46492900    0.85279800
Ge    7.91585000   19.62824000   16.37777000     -0.248848    0.26022700    0.48165400
Ge   14.45128000    2.02202000    5.65259000      0.048949   -0.10800200    1.37900400
Ge   13.25891000    2.79438000   16.13536000      0.160183   -0.00566800   -0.42678500
Ge   15.03145000   10.43698000    4.61263000     -0.557079    0.15715000    0.85465700
Ge   15.62542000    6.92649000   14.89013000      0.212173   -0.14495400   -0.68636900
Ge   15.71991000   14.32060000    3.22206000      0.342545    0.62699000   -0.57546300
Ge   12.24072000   16.25966000   15.39503000     -0.329351   -0.05851700    0.20204600
Ge   14.19826000   19.66095000   17.95258000      0.279437    0.12364900    0.88361100
Ge   10.24667000   21.46210000    0.89558000     -0.137958    0.23791200   -0.42405400
Ge   23.20546000    4.58046000    4.29720000     -0.033757   -0.68098500    0.07146400
Ge   23.32860000    2.49055000   14.13140000      0.320450   -0.19208700    0.50331300
Ge   21.57098000    8.86740000    5.59895000     -0.364081    0.46563700    0.34393800
Ge   21.13099000   10.44417000   14.09949000      0.109143   -0.60806600   -0.29568200
Ge   22.22975000   16.16352000    5.76032000      0.409981    0.10042100   -0.19283300
Ge   19.57392000   14.16017000   12.74605000      0.994930   -0.57987600   -1.10922200
Ge   19.90222000   20.85601000    5.85808000      0.543988   -0.11968900    0.24755100
Ge   20.93483000   23.59606000   17.55315000      0.545735   -0.26952900   -1.00658600
Ge    6.19807000    4.15095000    6.11623000     -0.266593   -0.22618900    0.83598200
Ge    2.76934000    3.07126000   13.90680000     -0.088769   -0.02982200   -0.55870200
Ge    5.69732000   11.17370000    2.73950000     -0.560431   -0.49907700    2.10925000
Ge    6.92547000    8.93546000   12.80104000      0.408587    0.32020100    0.79130800
Ge    4.83846000   15.24883000    0.44188000      0.603637   -0.61427100   -0.77717800
Ge    4.24665000   13.65380000   13.30325000     -0.586753   -0.33129700    0.69120600
Ge    5.00959000   22.69329000    5.84859000     -0.170159   -0.18062600   -0.79282700
Ge    5.73653000   21.82153000   14.61462000      0.368182   -0.88459700   -0.10197900
Ge   15.12978000    5.94330000    3.53441000      0.132023    0.16913100   -0.11990900
Ge   13.37305000    0.03768000   12.58216000      0.431190    0.36841800   -0.68145700
Ge   11.02571000   10.26593000    1.20546000      0.084432    0.69514700   -0.66049700
Ge   13.69722000    9.15366000   11.61454000     -0.030894    0.81559600   -0.29577800
Ge   11.25020000   12.87855000    1.96571000     -0.291780    0.74313000    0.40327300
Ge    7.83930000   17.47423000   11.55393000      1.179275   -0.23693800   -0.75781200
Ge   12.70435000   22.18356000    1.46766000     -0.527274   -1.43603800   -0.35824600
Ge   11.24275000   23.08515000   14.10387000     -0.697688   -0.60362000   -0.40916900
Ge    1.06152000    0.94795000   18.89743000     -0.380471   -0.02699000   -1.10376400
Ge   12.55435000    5.55308000   12.24296000     -0.446619   -0.33719000    1.29400900
Ge   17.09397000    6.14928000    0.84842000      1.136343   -0.63269700   -1.33137100
Ge   12.51080000    7.04354000    8.80276000     -1.587217    0.54982400   -0.58226000
Ge   20.91225000   13.73023000    2.86699000      0.881837    0.23201400   -0.77290600
Ge   15.93255000   17.66925000    8.61906000     -0.184598   -1.46184800    0.45138700
Ge   17.88063000   20.63371000    3.63006000     -0.118210    0.01582900   -0.14559600
Ge   19.03837000   21.22187000   13.40423000      1.278770    0.43378800   -1.57764200
Ge    0.46787000    0.51837000    3.61052000      0.102594    0.66871800   -0.44763300
Ge   22.92800000    1.86712000    9.87262000      1.801113    0.04913400    0.28542700
Ge   23.38433000   10.79469000    1.68106000      0.098307   -0.03569800    0.74870300
Ge   23.41464000    9.13068000   13.20167000      0.153854   -0.30985800    0.24804500
Ge    3.13810000   13.76036000    2.67867000     -0.460131    0.66135000    0.77815700
Ge    0.65308000   16.37193000   11.36059000     -0.278571    0.47119100    0.50984000
Ge   23.59278000   22.10932000    4.90383000      0.051443   -1.35070600    0.33157000
Ge   20.92187000   18.17953000   11.68665000      0.710682   -0.34027500    0.15765500
Se    2.76913000   22.92731000   19.38370000     -0.268965   -0.04151800    1.05672300
Se    1.86993000    1.57800000    9.61565000     -1.149316   -0.21406500    0.13420200
Se    1.59641000    5.98829000    2.03893000     -0.004045   -0.27867600   -0.18020800
Se   23.20841000    9.57657000   10.87225000     -0.284098    0.43325400   -0.46031800
Se   22.05594000   12.53263000    0.68388000     -0.316513    0.22113600    1.01667100
Se    0.07089000   14.35333000    8.42425000     -0.165884    0.61720100    0.45518800
Se    1.47561000   19.76918000    4.40336000     -0.269724    0.47530900    0.62512900
Se   23.34266000   18.93375000   11.38131000     -0.221686   -0.78741800    0.14765800
Se    6.85777000    1.56596000    2.96901000     -0.065783    1.30499400   -1.29205400
Se    5.34488000    3.72343000   13.54534000     -0.567394   -0.02981900   -0.49909400
Se    9.11677000    4.46367000    5.07847000      0.199881    0.76779500   -0.46584800
Se    7.80502000    9.15738000   10.46341000      0.624363   -0.28246600   -0.52933500
Se    8.12516000   10.06835000    0.20744000     -0.294516   -0.15777600   -0.09440700
Se    6.80705000   15.36970000   12.01530000      0.091762   -0.27824000    0.19875800
Se    6.93674000   20.15163000    3.08365000     -0.531456   -0.33252500   -1.12634500
Se    8.79566000   20.74698000   12.47004000      0.409474   -0.50753600    0.23363200
Se   12.04582000    0.97981000   19.38149000     -0.137140   -0.13585800    0.64836100
Se   13.25428000    2.57999000   11.76121000      0.325527   -0.37981200    0.55777100
Se   11.72668000    8.99667000   18.83025000      0.490250   -0.80490100    0.27380600
Se    8.82045000   10.86328000    8.22858000      0.790687    0.44208400   -0.81760000
Se   13.31270000   13.59698000    0.60839000      0.497531   -0.21823400   -0.30866800
Se   11.45009000    9.24542000    9.65499000      0.682080   -1.04388000   -0.14304600
Se   14.83348000   17.22127000    0.33601000      0.097824    0.00260000   -0.26748700
Se   11.75089000   20.57291000   12.68846000      0.408982   -0.25474500   -0.80167900
Se   17.80495000    4.01089000    4.82992000      0.342106   -0.60785900   -0.73139800
Se   14.05901000    3.89548000   13.74100000     -0.409802   -0.27908500   -0.66380500
Se   15.03746000    5.01991000   16.41454000      0.250828   -0.11479400   -0.34919000
Se   19.94974000    3.32963000   13.47442000      0.596137   -0.56286300    0.30410600
Se   19.73309000    9.67927000    1.04074000      0.146781   -0.21634900   -0.19843900
Se   16.15412000   19.26479000    6.77749000     -0.188629    0.50147100   -0.08146100
Se   19.19351000   18.47034000    0.61205000     -0.387383    0.18081500    0.97504100
Se   20.03157000   19.14753000    9.39354000     -0.258596    1.10676200    1.77930400
Se    3.64366000   23.37403000    3.86931000     -0.117451   -0.04172600    0.59861100
Se    2.79854000    6.47406000   11.05230000     -0.010084   -0.71369000    1.28062800
Se    5.72338000   11.64151000    0.43630000      0.220842   -0.23307000   -1.72247400
Se    5.00801000   13.10295000   10.94877000     -0.572316   -2.18442800   -0.03335500
Se    3.49625000   12.79053000    0.46320000      0.284307    0.53305800   -0.94965900
Se    3.31566000   16.87156000   11.31874000      0.078523    0.39050100   -0.67179700
Se    5.86671000   21.80608000   19.73295000     -0.338476   -0.73108000   -0.07679500
Se    5.44555000   20.03724000   12.32826000     -0.313032    0.04374100   -0.44500600
Se   10.61270000    5.63004000    1.77365000      0.545334    1.02957000   -0.50518600
Se    8.13935000    2.13361000   10.73326000     -1.035868    0.36361900    0.77892600
Se   10.73443000   11.88176000   18.27602000     -0.169220    0.61659400    0.66623200
Se   10.21646000   11.92718000   11.24435000     -0.664639    0.36844300   -0.14321600
Se   11.60075000   15.70340000    2.40543000      0.273538    0.00173300   -0.21796000
Se   12.11301000   15.79306000   12.79271000      0.117669   -0.05347300    0.19774800
Se   10.94639000   22.97545000   18.29919000     -0.361000    0.58324800   -0.57658600
Se    9.97848000   23.37609000   11.68598000      0.641901   -0.51359000    0.43959500
Se   12.02976000    4.20754000   17.92175000     -0.065776   -0.31649500   -0.19838800
Se   17.51794000    8.15905000    9.17326000      0.046393    0.12175600    0.40331400
Se   16.76986000   10.43231000    3.01896000      0.647220    0.61449000   -1.13601900
Se   18.47159000   13.37951000   10.54528000      0.383850    0.29310000    0.17996400
Se   19.53487000   15.49563000    2.08257000     -0.086591   -0.42115400    0.41385300
Se   13.89301000   15.96003000    8.10764000      0.834808    0.22529800    0.13185600
Se   17.71234000    0.27802000    0.18637000      0.275244   -0.28862000    0.40535100
Se   16.95596000    0.80226000   10.70112000     -0.535704   -0.10566400   -0.37807500
Se    0.57820000    2.11544000    1.00917000      0.357045    0.47941500    0.86114400
Se   22.07519000    3.92532000   10.02714000     -0.575164    1.97806000    0.19493600
Se   22.10639000    4.98433000    2.10345000     -0.141833   -0.32028400    0.46438300
Se   21.57871000   12.14881000   12.36355000     -0.405715    0.64579700   -0.30499200
Se   23.28593000   14.04635000    4.18091000     -0.690432    1.01195800   -0.24164900
Se   21.30904000   15.72253000   11.78459000      0.220289   -0.14801400   -0.69599600
Se   22.88298000   21.68086000    2.34544000      0.386634   -0.05395300    0.14653600
Se   21.77373000    0.17958000   15.07584000      0.078519   -0.26368300    0.26967000
Se    4.09639000    3.43802000    9.55548000     -0.124261    0.85386200   -0.31135400
Se    4.08267000    6.03262000   19.17767000      0.893893   -0.57824100   -0.61431600
Se    4.36538000   11.77342000    8.44885000      0.012130    0.16917300    0.39996900
Se    4.31650000    6.84896000   14.68370000     -1.362290   -0.52789200    0.23585500
Se    6.98117000   19.21764000    6.22594000      0.329425    0.01229000   -0.02183600
Se   21.82522000   15.65513000   19.65035000     -0.046649   -0.01950800   -0.32661900
Se    1.51131000   21.76052000   11.13615000     -0.188068    0.06526700   -0.16185500
Se    2.73789000   19.84870000   17.81973000      0.137724   -0.18615100    0.64362300
Se    7.43517000    3.05198000    8.12113000     -0.996974    1.08941200   -0.81682400
Se    6.08413000    4.05420000   19.68230000     -1.299710    0.34088300    0.22947800
Se    6.28573000   10.06670000    6.05550000     -0.357939    0.31316600   -0.48724300
Se    3.82308000    9.69421000   18.92540000     -0.048830   -0.29066000   -0.18267400
Se    6.61906000   18.04858000    9.55558000      0.304965    0.49774300   -0.76038500
Se    6.14963000   15.19243000   18.10660000     -0.312925    1.26772400    0.76277900
Se    9.27298000   20.79262000    9.04065000      0.668052   -0.13893500   -0.03724200
Se    8.90944000    2.93177000    0.27078000     -0.688244   -0.54093800    0.15034500
Se   14.58305000    3.16566000    8.10813000     -0.149807   -0.56076200   -0.58180700
Se    8.76891000    5.40204000   16.67593000     -0.316659   -0.71642600    0.92096800
Se   10.84725000    5.33654000    8.79062000     -0.381958   -0.20101700    0.19043400
Se   18.52167000   10.89897000   16.61886000     -0.242727   -0.33698100   -0.43115700
Se   12.81561000   19.96911000    8.23218000      1.545014   -0.19822900   -0.43663500
Se   15.82731000   16.06771000   16.91067000     -0.050540   -0.26261300   -0.05777600
Se   15.93574000   23.54898000    7.14341000     -0.672872   -0.32861500   -0.06472700
Se   19.00304000    3.50724000   16.69186000      0.481997   -0.06034000    0.58714100
Se   17.87639000    4.40247000   10.63931000      0.519944   -0.13939100    0.23767400
Se   23.34942000    3.46032000   16.54440000      0.072093    0.25072900    0.40775100
Se   19.26965000    8.92496000   12.56785000      0.596800   -0.59041300    1.17821000
Se   20.61016000    9.37308000   16.41047000     -0.823760    0.14096500    0.66123700
Se   15.48534000   18.91733000   11.12356000      0.581983    0.25653800   -0.82864200
Se   18.97818000   14.52035000   17.18584000     -0.069794    0.01908500    0.06794600
Se   18.56135000   22.98274000    7.49163000     -0.763098   -0.17230600    0.70147200
Se   17.66490000   20.46902000    1.04673000      0.982218   -0.37807900    0.16545800
Se    4.84972000   22.11975000    8.64498000     -0.003181   -0.20203000    0.31168600
Se    3.58148000    2.87526000    0.92714000      0.720070   -0.40038400    0.60345100
Se    6.81223000    7.01013000   10.06129000      0.261910   -0.05360700   -0.15210900
Se    4.88662000    7.93179000    0.53830000      0.037639   -0.17139700    0.54770400
Se    4.99217000   16.09200000    6.24198000      0.002775   -0.60963200   -0.38219700
Se    7.24005000   12.19365000   17.05443000     -0.530897   -0.80974600   -0.19721100
Se    2.83628000   19.01241000    8.83841000      0.323484    0.18661100    0.08057700
Se   21.89806000   19.66145000    1.34674000     -0.128540    0.30333900   -0.22911500
Se    8.65198000   23.45355000    7.02547000      0.749638   -0.20830700    0.52879700
Se   12.22302000    4.03902000    2.63762000      0.941559    0.10720400    0.14604100
Se   10.52697000    1.97921000    9.34186000      0.533899    1.46166500   -0.00832500
Se    8.32811000    6.35787000    0.46060000     -0.246275    1.01291700    0.15678200
Se   11.07854000   14.13603000    7.78435000      0.254771   -1.33811900   -0.35000900
Se    9.28295000   13.43592000    0.59013000      0.109424   -0.19888700   -0.60032700
Se   13.62018000   22.95701000   10.11937000     -0.319087    0.25528600    0.58201900
Se   15.22698000   12.40364000   16.67030000     -0.683152    0.15242400    1.01753300
Se   18.14949000    2.74098000    6.96283000      0.370134    0.51015700    0.31028000
Se   16.38550000    4.06836000    1.72505000     -0.258366   -0.79138500    0.65657600
Se   15.22166000    8.14808000    8.93364000      1.063452    0.76851800   -0.37704900
Se   15.30520000    8.13529000   16.97643000     -0.041781    0.39910700    0.48206500
Se   15.10218000   13.99760000    8.61267000     -0.213967    0.34594500   -0.07495400
Se   16.72671000   12.98427000   19.68242000     -0.958897   -0.10119900   -1.84373400
Se   13.64664000   19.92159000    3.07322000      0.262679    0.48925300   -0.61053800
Se   19.55980000   21.43731000   17.89685000      0.078028    1.21819200   -0.63614300
Se   22.27339000    0.96661000    7.86680000     -0.503604   -0.54804500   -1.82267300
Se    0.52406000    0.64807000   15.62464000     -0.399030    0.01834200    0.49070600
Se   21.63792000    7.44141000    9.28465000      0.012453   -0.61848600   -0.67865800
Se   23.12438000    7.94194000   16.93484000     -0.235259    0.08440300   -0.33930600
Se    0.28665000   10.68233000    7.69557000     -0.237959    0.76946100   -0.48019300
Se   22.37907000    8.72778000   19.06693000      0.199633   -0.33169500    0.37275800
Se   21.27676000   17.59097000    8.17714000      1.187954   -0.59486500   -0.55518000
Se   18.69489000   17.88185000   18.41127000     -0.184499   -0.39963100   -0.95318300
Se    1.14712000   23.02934000    9.11143000      0.109631   -0.41372300    0.50784000
Se    2.59608000    0.67217000   12.62463000      0.093424    0.08734200    0.39365300
Se    2.37973000    8.18236000    8.38105000      0.793048    0.37349500    0.43373900
Se    2.53777000    7.93714000   17.81236000     -0.446910    0.22889200    0.12003600
Se    1.65242000   16.39443000    8.76899000     -0.686740   -0.87392400   -0.27032500
Se    0.70321000   12.77101000   17.85059000     -0.051597    0.19748600    0.12030500
Se    3.69459000   19.78789000    5.27734000     -0.173968   -0.15371100    0.00096600
Se   22.82733000   19.71734000   16.81750000      1.093833   -0.82109000    0.87414300
Se    6.94052000   23.38026000    4.27225000     -0.104178   -0.64759500    0.86655100
Se    5.77787000    0.66548000   18.45163000      0.646926    1.02324600   -1.84104000
Se   11.36795000    6.29610000    5.31325000     -0.818355    0.02024800   -0.55081600
Se    6.00227000    7.89146000   15.71936000      1.582042    0.74474400    1.02645200
Se    7.37861000   14.60993000    8.02029000     -0.431255    0.18855800    0.44669400
Se    8.39710000   18.32478000   13.62212000      0.181404    1.35796800    0.68415200
Se    7.66758000   16.37346000    2.90353000      0.155026    1.14299500    0.53385400
Se    9.28489000   15.64903000   15.05067000     -0.476094    0.28916600   -0.65837600
Se   14.65026000   21.52245000    4.62522000     -0.253145   -0.08205400    0.77476400
Se   13.70425000   22.76012000   15.76228000      0.570962   -0.12994600    0.68567800
Se   13.78897000    7.93278000    4.65223000     -0.291551    1.60223200   -1.40064400
Se    9.70493000    7.65368000   13.64286000     -0.028720    1.06885200   -0.80426000
Se   14.18020000   13.03553000    4.65371000     -0.875427   -0.66453400    0.48701900
Se   14.46185000   15.44348000   14.61957000     -0.019090    0.20526800   -0.58780900
Se   11.75830000   18.76189000    3.87527000     -0.658935    1.11961600    0.20284100
Se   16.67570000   20.75200000   17.35285000     -0.498362   -0.03697300    0.33179600
Se   17.59064000    1.63721000    4.37113000     -0.318920   -0.09425700   -0.52134600
Se   19.75207000    1.84655000   18.31130000     -0.641610    0.86952400   -0.25676400
Se   20.03709000    7.46294000    4.23593000     -0.717021    0.33004400    1.42263900
Se   19.95892000    5.64475000   17.34982000      0.011869   -0.37852100   -0.54092700
Se   20.31130000   12.04434000    4.41480000     -0.150453   -0.56075200    0.27509500
Se   16.53735000   12.48207000   12.33210000      0.348777   -0.12897300    0.39964200
Se   19.25907000   17.99819000    4.18489000     -0.229485    0.28743800    0.35847400
Se   21.18058000   20.29707000   13.93699000     -0.224077    0.05023300    0.46456700
Se    5.50821000    6.12919000    7.38237000     -0.188638    0.09068700   -0.82326400
Se    2.97589000    3.93221000   17.04466000      0.169314   -0.36778600    0.14187200
Se    3.06914000   10.19448000    2.96678000      1.122132   -0.72898000   -0.20439500
Se    4.91683000   11.05281000   14.32715000     -0.650547    0.22502100   -0.87418800
Se    4.21338000   13.89787000    5.44687000      0.721296    0.70172100    0.39432300
Se    1.73705000   17.00089000   18.80929000     -0.620832   -0.63351400   -0.03202900
Se    2.12438000    0.04712000    5.71414000     -0.172267   -0.04142100   -0.40622900
Se    3.61690000   20.14282000   13.82271000     -0.152051    0.53798600   -0.16503900
Se   12.34359000    0.50854000    6.38104000     -0.013698   -0.37133400   -0.02592600
Se    6.95550000    3.84255000   16.10022000      0.280494   -0.12877100   -0.55390800
Se   10.96479000   11.68385000    7.30076000     -0.483928    0.83187900    0.64059400
Se   11.38715000   14.10080000   17.46268000      0.904733    0.34414700    0.63875700
Se   10.44314000   17.42959000   10.58733000     -0.765648    0.54832900   -0.33588500
Se   11.47957000   19.70043000   18.95567000      0.124460    0.27072700    0.44711200
Se   10.44006000   21.45486000    3.84819000      0.094746    0.40310800    0.06409500
Se    7.85803000   20.97979000   18.73855000      0.862086   -0.24021600   -0.68051400
Se   15.27367000    5.11144000    6.01625000     -0.078275    0.04111900    0.04094700
Se   14.08090000    5.98891000    0.71457000     -0.769208    0.54431600   -0.65071500
Se   16.21252000   10.60072000    6.75346000     -0.134449    1.20035200    0.21984200
Se   17.93690000    7.00805000   13.95895000     -0.256948    0.04033800   -0.14321900
Se   17.44727000   14.13382000    4.97715000      1.049742    0.50299700    0.09730800
Se   13.01343000   18.82194000   15.72922000     -0.522979    0.06242300    0.01314800
Se   16.10846000   22.42171000    3.05796000     -0.074073    0.66918300    0.11890200
Se   17.68882000    3.50757000   13.02291000     -1.180949    0.26123200    0.20888000
Se   21.49290000    4.78776000    6.30564000      1.180263   -0.65777100   -0.28974800
Se   22.64917000    5.19426000   13.85083000      0.596583   -0.06049200    1.42296800
Se   17.58517000   10.30577000   11.72051000     -0.283803   -0.00384400   -1.03991100
Se   22.35161000   14.34014000   15.28876000     -0.189058    0.06798400    0.66721900
Se   18.15809000   16.08121000    7.51861000      0.163176    0.92786100    0.52665800
Se   22.28813000   16.63765000   15.88043000      0.391990    0.45980500    0.06454400
Se   21.06401000   22.74975000    8.58221000     -0.039528    0.04669300    0.28462200
Se   22.68768000   23.08017000   19.02550000      0.285881   -0.05156500    0.19755900
Se    3.89481000    2.86727000    7.09300000      1.792592   -1.25391900    0.08471700
Se    4.69608000    0.25411000   15.10657000     -0.688622    0.09646800    0.23562400
Se    4.18972000    5.59570000    3.83779000      0.039539   -0.76524500   -0.39201000
Se    4.71635000    9.28779000   11.29448000      0.661868   -0.58621300   -0.52555100
Se    1.62216000   11.90089000    3.58398000     -0.317470   -0.01643800   -0.21761400
Se    3.78688000   14.38289000   15.84746000      1.443454   -0.30693800    0.84425900
Se    3.74447000   16.99595000    1.56669000      0.397454    0.13810300    0.13127100
Se    3.71310000   16.62822000   13.58295000     -1.203759   -0.93441200    0.55807600
Se   11.06794000    0.79337000    1.94725000      0.321400    0.10444000   -0.73243100
Se   11.15895000    1.77123000   14.74254000     -0.303416    0.79133900    0.54996800
Se   10.01836000    9.42197000    3.22221000     -0.607001   -1.02111400    0.54934000
Se    9.65244000    8.87667000   16.89938000     -0.781863   -0.08433800   -0.25751100
Se    8.38893000   12.92233000    4.81985000     -0.148041    0.78172800    0.14649300
Se   12.08231000   11.22145000   12.28088000      1.371878   -0.24782500    0.97674500
Se    8.69727000   19.45314000    1.60948000      0.373243   -0.87266200    0.60322300
Se    8.79106000   22.28925000   15.13441000     -0.180097    0.34931500   -0.11310200
Se   19.06527000    4.51500000    8.30398000      0.123141    0.65920500    0.42743700
Se   14.86190000    0.55300000   17.28997000      0.052523    0.21109800    0.08921700
Se   17.01731000    7.77565000    2.51785000     -0.481757   -0.18211100    1.16455400
Se   13.47079000    7.68193000   13.65374000     -0.383241   -0.52889200    0.60823500
Se   17.52089000   12.83585000    1.83173000      0.700066   -0.56766300    2.20548300
Se   19.35998000   17.83995000   13.67589000     -0.018851    0.21583300    0.37710200
Se   15.28664000   17.13103000    3.21396000      0.026398   -0.24438800   -0.54565100
Se   17.12384000   20.30829000   14.27980000     -0.537231   -0.56757300   -0.15817700
Se   22.52361000    1.82265000    4.78711000     -0.210334    0.94237500   -0.51524700
Se   22.49415000    0.60890000   11.73262000     -0.538940   -0.38206800    1.70557300
Se   23.66290000    7.55795000    5.66144000      0.801085    1.64903400   -2.36661600
Se   21.80837000    7.02955000   12.88968000     -0.732381    1.40626900   -0.94691400
Se    0.55388000   17.77367000    6.89588000     -0.455470   -0.12844100   -0.63415900
Se    0.58795000   11.48831000   14.23287000      0.389721    0.16289200    0.39573500
Se   22.36700000   20.66867000    6.54618000     -0.084959    0.11017000   -0.36460900
Se   19.30353000   21.86363000   10.98566000      0.018217   -0.50870500    0.46095800
Se    2.09280000    4.10141000    6.83883000     -1.111621    1.62012200   -0.75753500
Se    1.69729000    4.43284000   11.73983000      0.511585    0.09027200    0.17724100
Se   22.55794000   10.98217000    4.40371000     -0.888592   -0.13183000   -0.35584700
Se    2.01987000    7.90208000   13.17917000     -0.543355    0.12734700   -0.13707400
Se    0.80517000   14.89929000    2.10390000      0.304103    0.17221500    0.18914400
Se    1.12481000   16.31320000   14.08557000      1.142047    0.35401100    0.34810500
Se    2.54115000   19.73179000    1.78230000      1.172195   -0.23656900    1.56346900
Se    6.73977000   17.48850000   18.83442000     -0.379146   -0.65746500   -0.77493100
Se   10.84736000    2.57560000    5.14616000     -0.199930   -0.44387400    1.57165600
Se    8.06906000    2.24792000   13.10431000     -0.060003   -0.12112400   -0.05537600
Se    5.89701000    8.59073000    3.24392000      0.749885    0.24782100   -0.16283600
Se    8.63393000   10.92958000   13.56503000     -0.648634   -0.68119600   -0.06976200
Se    6.82917000   14.59887000    1.78946000      0.040479   -1.34105400    0.12848900
Se   10.24520000   14.16452000   13.06463000      0.091486    0.63555800    0.34363700
Se    5.95826000    0.16651000    9.98677000      0.379072   -0.73283400   -0.05289500
Se    5.45430000   19.50831000   16.36803000      0.477223    0.36299900   -0.18631100
Se   13.37779000    0.34874000    2.59122000      0.275914    1.33642900    1.14278000
Se    9.76400000    5.38403000   13.28501000      0.584414   -0.87101900   -0.22160500
Se   13.82574000   10.85544000    1.23222000     -0.013303   -1.42756700    0.78460000
Se   15.10209000   10.88109000   13.69782000     -0.070116   -0.56139300    0.04316400
Se   10.36797000   16.91397000    6.03453000     -0.160091    0.05648400   -0.04048900
Se   13.52760000   18.78773000   12.38537000     -0.094385   -0.20568800    0.06827200
Se   14.57022000   21.58720000    0.13687000      0.527812   -0.96113100   -0.83437300
Se   15.41899000   22.38028000   14.17081000     -0.477550    0.33501500   -0.66261100
Se   19.37138000    5.18956000    0.36959000     -0.274086   -0.20260200    0.87267300
Se   14.04006000    6.43229000   10.41087000      1.503636   -0.61372200    0.31165300
Se   20.62934000    7.56441000    2.09110000      0.778862    0.51638200   -1.43701400
Se    1.56589000   13.01472000   12.67482000      0.481962    0.35035400    0.08604200
Se   21.40259000   18.45021000    3.43117000      0.870787   -0.42739800    0.59257100
Se   18.18068000   15.78083000   13.75713000     -0.966549    0.88308000    0.16195900
Se   19.82226000   22.41703000    3.88437000      0.016894   -0.41330900   -0.55884100
Se   19.13159000   23.55010000   13.99292000     -0.262664    0.41832200    1.89805800
