384
23.69824000 23.69824000 19.89960000
Ge    5.20822000    6.37795000   12.45894000      0.336272   -0.31614100   -0.93209500
Ge    6.65423000    4.02156000    3.58858000     -0.047826   -0.01089200    0.03356400
Ge    1.59129000   12.79717000    7.40826000      0.759461    0.35819600   -0.47282700
Ge    9.77779000   13.36942000   15.76374000     -0.440274   -0.58755500   -0.33040400
Ge    5.21250000   15.31215000   10.06656000      0.004030    0.77621100   -0.16394600
Ge    9.44079000   18.54422000   19.14366000     -0.452089    0.36022800    0.01707500
Ge    7.60977000   23.02783000   12.41998000     -0.796095    0.22129600    0.96611000
Ge    5.04195000    0.37014000    0.79243000     -0.965351    0.61327800    0.73670400
Ge    9.07986000    5.18311000   10.70151000      0.047107    0.21219000   -0.77225800
Ge   11.96439000    6.32220000   19.30483000     -0.091168   -0.03022000    1.03970500
Ge    9.87699000    7.75821000   10.90331000      0.676333    0.29719300    0.29091900
Ge   13.29315000   11.63677000   18.79494000      0.060031    0.39620800   -0.01201600
Ge   11.39841000   20.15876000   10.22514000     -0.815733   -1.42399000    0.14082400
Ge   12.60614000   15.78527000   19.44700000      0.176506    0.59627200    0.99750400
Ge   10.95933000   23.34844000    8.84536000     -0.104663   -1.02092500   -1.15903500
Ge   16.35116000   22.60263000   18.68273000     -0.928535    1.33661500    0.50962800
Ge   20.32644000    4.97261000   11.64339000     -0.259756   -0.00484000   -0.72867600
Ge   19.92455000    8.21645000   18.78906000      0.078634    0.47775000    0.31860600
Ge   20.05659000   11.23023000   10.74355000     -0.817089   -0.22045900   -0.76614300
Ge   19.14343000   12.53580000   18.74545000     -0.826746   -0.10141500   -0.37030300
Ge   15.45492000   20.85226000    8.82489000     -0.734740    0.13223600    0.10516800
Ge   17.13660000   16.06052000   19.09893000     -0.604893   -0.26738200    0.03212800
Ge   19.79873000    0.98037000   12.00534000      0.121456   -0.05750600   -0.51731500
Ge   20.23682000    3.63564000    2.63672000     -0.530288    0.24759000   -0.38952100
Ge   23.46124000    6.11238000    7.45221000     -0.202943   -0.31497600    0.97544000
Ge    2.15274000    3.90119000    3.33926000      0.694050   -0.58132900    0.61309400
Ge    1.56320000   10.41901000    9.83340000      0.591036   -0.51887400   -0.22129700
Ge    1.52025000    8.42180000    0.29789000      0.371850   -0.09581300   -0.34769900
Ge   20.60804000   15.20077000    8.44356000     -0.824916    0.24255700   -0.01110300
Ge    0.41284000   14.57129000   19.48131000      0.600181    0.55510300    0.40002800
Ge   18.75104000    1.29008000    9.30965000      1.159355    0.44242200   -0.66074500
Ge    0.71377000   20.49375000    0.38458000     -0.151427    0.59621600   -0.59275500
Ge    5.22905000    9.21112000    8.49321000     -0.860518    0.28274000    0.10916000
Ge    1.98686000    4.33438000   19.81864000     -0.478215    0.35130200   -0.18544700
Ge    2.14597000    9.15323000    6.01947000     -0.320156   -0.34367400    0.76730400
Ge    4.77196000   11.38134000   16.67209000      0.020191    1.03126200   -0.37206800
Ge    5.65214000   17.69770000    3.84934000      0.488754    0.00255000   -0.14973300
Ge   23.19787000   17.31615000   18.42710000     -0.023170    1.15670200   -1.94831600
Ge    4.92817000   19.93477000    9.76077000      0.520764    0.54286200    0.76710100
Ge    4.21596000   21.94809000   17.39351000     -0.047664    0.18060700    0.69497000
Ge    9.30355000    2.11316000    7.13857000      0.960136   -1.60196400   -0.22521700
Ge    7.62549000    8.12073000   18.22891000      0.342651    0.00819700    0.89070300
Ge    6.28394000   12.75244000    6.77237000     -0.358515   -0.78803700   -0.77020800
Ge    8.00708000    8.36994000    1.95809000      0.009050    0.21896200   -0.27367200
Ge    9.04973000   18.32428000    7.99959000     -0.779780   -0.11767500    0.28530200
Ge    4.18046000   19.52871000    0.11874000      0.733345   -0.43142800   -1.44877000
Ge   11.41465000   21.37089000    6.46784000     -0.550633    1.10486000   -0.11163700
Ge    9.71803000    3.46267000   18.09066000     -0.042629    0.78914300   -1.02236900
Ge   13.34578000    6.57884000    6.59209000     -0.232879   -0.45307500   -1.12566900
Ge   14.16020000    8.82736000   19.79439000      0.487973   -0.14297500    0.17674500
Ge   15.84494000   13.34478000    6.46927000      0.669897   -1.72220500   -0.68401300
Ge   16.96154000   13.69864000   15.52664000      0.871649    1.10253300   -0.09314400
Ge   13.08653000   16.66331000    4.15054000      0.065995   -0.39533000   -0.21857100
Ge   15.18153000   18.09634000   14.98099000      1.715623   -0.92546300   -0.97763100
Ge   14.98083000    1.06478000    9.18243000      0.889632   -0.39617400   -0.29731100
Ge   15.67892000    4.89210000   18.98316000      0.130382   -0.12899500    0.35785000
Ge   20.14618000    6.65885000    7.14608000     -0.525763   -0.19147700    0.03391100
Ge   22.18746000    5.65102000   16.37119000      0.964770   -1.02778300   -0.87820500
Ge   20.45367000    9.23328000    8.29929000     -0.535363    0.72882000   -0.60977500
Ge   21.46088000   13.77344000   17.81339000      0.259018   -0.12531700   -0.68097800
Ge   18.68246000   18.90485000    7.31372000     -0.182182   -1.47316100   -0.41218800
Ge   20.52638000   19.54840000   16.51359000     -0.198904   -0.46823500   -1.00251900
Ge   19.61372000    0.77021000    5.70525000      0.441897    0.26454900   -0.80722500
Ge   19.74133000   22.21281000    0.45354000     -0.545343    0.29202900    0.39339800
Ge    5.15487000    2.18865000   11.37623000      0.120728   -0.41739300   -0.34629000
Ge    5.12236000    2.99395000   17.65866000      0.191039    0.47198400    0.51732500
Ge    3.55724000    6.49996000    5.98343000     -0.621541    0.05753400    1.11251900
Ge    2.73699000   10.38313000   12.47024000      0.952505   -0.23105000    0.19676000
Ge    3.18801000   17.80870000    6.69115000     -0.512179    0.88170100   -0.01445000
Ge    1.33340000   13.74320000   15.55038000     -0.056748    0.45852200   -0.15214700
Ge   22.52516000   22.00036000   10.87160000      0.567014   -0.58632100   -0.01362900
Ge    2.26440000   22.63324000   14.73701000      0.750579    0.93975500   -0.74960400
Ge    9.80840000    3.46303000    2.60598000      0.367051   -0.27825300   -0.34293100
Ge    9.40671000    1.46403000   16.54391000     -0.186011   -1.21390500   -0.66116600
Ge    8.81749000   10.47577000    5.43043000     -0.393888    0.50716300    0.84358600
Ge    7.73745000   10.03926000   15.72485000      0.473232    0.72731900   -0.23732000
Ge    9.13228000   14.81048000    6.55171000      1.333778   -0.61864400   -0.64553300
Ge   16.05335000   10.18986000   16.11127000      0.998548    0.10604500   -0.97797400
Ge    8.23743000   21.37220000    4.83264000      0.216827   -1.60909000    0.99738500
Ge    7.84505000   19.60921000   16.49164000      0.061654    0.26715500    0.41119800
Ge   14.43219000    2.16760000    5.59164000     -0.048990   -0.26118000    1.18839700
Ge   13.28619000    2.87010000   16.07128000      0.363895   -0.29675000   -0.21700700
Ge   15.01730000   10.53659000    4.69158000      0.102995   -0.00174200    0.24685500
Ge   15.63524000    6.83910000   14.86831000     -0.308579   -0.03504000   -0.44089900
Ge   15.86184000   14.28366000    3.09170000     -1.110633    0.75095500    0.14013600
Ge   12.18897000   16.22438000   15.44149000     -0.212297    0.03360100    0.09092900
Ge   14.33723000   19.62771000   17.90642000      0.168865   -0.00749600    1.17635700
Ge   10.24237000   21.44416000    0.82178000      0.004341    0.14483800   -0.40003200
Ge   23.19292000    4.56915000    4.45677000      0.923305   -0.83741100   -1.21422400
Ge   23.15600000    2.44869000   13.96062000      0.405235   -0.10688300    1.12874000
Ge   21.59594000    8.87066000    5.57177000     -0.720007    0.69145000    0.13963000
Ge   21.12123000   10.36298000   14.07862000     -0.032978   -0.42665400   -0.46168100
Ge   22.23761000   16.21709000    5.77008000      0.292262   -0.13216500   -0.07611400
Ge   19.61290000   14.19322000   12.70566000      0.918071   -0.59044400   -1.25863500
Ge   19.91892000   20.78443000    5.88766000      0.393210    0.77081200   -0.53430300
Ge   20.86591000   23.62069000   17.43697000      0.911083   -0.30476700    0.09506200
Ge    6.24628000    4.10369000    6.15491000     -0.677056    0.31988800    0.40282500
Ge    2.77286000    3.17494000   13.77272000     -0.075524   -0.29657800   -0.01872500
Ge    5.76523000   11.16407000    2.73154000     -0.640368   -0.24054100    0.75412600
Ge    6.97816000    8.82837000   12.94477000      0.163533    0.56849300    0.58468200
Ge    4.79079000   15.28490000    0.41524000      0.686200   -1.49025300   -1.12145300
Ge    4.22756000   13.77051000   13.28315000     -0.627745   -0.36225400    1.09396600
Ge    5.11295000   22.64472000    5.80675000     -0.405493   -0.23082300   -0.51833700
Ge    5.71555000   21.85464000   14.64597000      0.411431   -0.21178800   -0.16501500
Ge   15.12492000    5.98484000    3.49027000     -0.002663    0.12042600    0.06033800
Ge   13.38050000    0.07098000   12.49344000      0.572904    0.40124700   -0.07979200
Ge   11.13329000   10.35837000    1.15621000     -0.296688    0.27704600   -0.01950100
Ge   13.71508000    9.28160000   11.55453000     -0.129544    0.18559700   -0.15935700
Ge   11.29361000   12.91367000    1.98218000     -0.218005    0.86887100    0.79403600
Ge    7.80978000   17.44912000   11.59038000      0.805056    0.20435400   -1.62702600
Ge   12.70623000   22.20028000    1.40048000     -0.707845   -0.37135400    0.56737900
Ge   11.22917000   23.14947000   13.96817000     -0.264238   -1.17789800    0.29703900
Ge    1.10951000    1.07068000   19.00144000     -0.600713   -0.55020000   -1.64052300
Ge   12.50345000    5.55272000   12.31992000      0.167602   -0.15816700    0.56876200
Ge   17.15487000    5.95632000    0.94876000      0.620603   -0.72484400   -0.93228800
Ge   12.50074000    7.09550000    8.76857000     -0.741648    0.56834000    1.27446100
Ge   20.97929000   13.61285000    2.91788000      0.793210    1.85700000   -1.45455400
Ge   15.93023000   17.64098000    8.54485000     -0.026164   -1.39124000    1.02920200
Ge   17.94849000   20.43304000    3.56683000     -0.030980    0.72500100    0.77761100
Ge   18.98519000   21.26244000   13.31683000      2.498756    0.16188400   -1.48800600
Ge    0.42145000    0.47500000    3.58363000     -0.006374    0.83294200   -0.03966700
Ge   22.99695000    1.84869000    9.88727000      1.612339    0.32106000    1.03372700
Ge   23.37816000   10.83792000    1.62187000      0.411045   -0.31170400    0.98128500
Ge   23.49195000    9.19192000   13.22758000     -0.462995   -0.52727700    0.42492900
Ge    3.09291000   13.91912000    2.74225000      0.394371   -0.36294500   -0.10385700
Ge    0.68321000   16.22367000   11.39434000     -0.103729    0.82882200    0.47614500
Ge   23.54409000   22.07938000    4.96948000      0.364663   -0.85689800   -0.02133500
Ge   20.94833000   18.14520000   11.65831000      0.482583    2.08262000    0.26563800
Se    2.60033000   22.92643000   19.36412000      0.308729   -0.43770900    0.60868300
Se    1.92011000    1.52019000    9.59656000     -0.858652    0.37776800    0.35544800
Se    1.61699000    5.81674000    2.09188000     -0.439452    1.24142400   -0.95234500
Se   23.16844000    9.58071000   10.92690000     -0.324071    0.39780100   -0.73342800
Se   22.04214000   12.60440000    0.79502000     -0.362107    0.46603100    0.55618400
Se    0.07351000   14.46387000    8.38018000     -0.066636    0.16343900    0.28549700
Se    1.44360000   19.78538000    4.42459000     -0.164960    0.61187800    0.56525000
Se   23.47627000   18.95627000   11.37229000     -0.515190   -0.90879700    0.05934100
Se    6.81897000    1.55566000    2.91179000     -0.077347    0.93175300   -0.61980000
Se    5.28012000    3.70236000   13.46258000     -0.437126    0.27478500   -0.27865700
Se    9.03434000    4.53659000    4.95947000      0.432455    0.57544300   -0.03073000
Se    7.77099000    9.07040000   10.57882000      0.807042    0.74357000   -0.58383500
Se    8.21444000   10.09964000    0.30238000     -0.632895    0.01968600   -0.74857700
Se    6.71803000   15.41968000   12.08306000     -0.059512   -0.56732700   -0.03219800
Se    6.83913000   20.11817000    3.09748000      0.232492   -0.32825200   -1.19725000
Se    8.84168000   20.71335000   12.49631000      0.331459   -0.59259800    0.25658400
Se   12.02828000    1.08298000   19.30873000     -0.545854   -0.59610900    0.49183300
Se   13.42034000    2.65634000   11.83030000     -0.319458   -1.28185400   -0.83188700
Se   11.83725000    8.99250000   18.91825000     -0.021492   -0.91834600    0.03106200
Se    8.68853000   11.01886000    8.26549000      1.037396    0.23733400   -0.72347200
Se   13.30310000   13.63423000    0.59372000      0.344552    0.51435900   -0.60991800
Se   11.53360000    9.31918000    9.57218000      0.226825   -1.42930600    0.11557500
Se   14.81635000   17.32661000    0.26801000      0.038463   -0.05608100   -0.11276300
Se   11.83452000   20.56634000   12.70416000      0.270409    0.24057000   -0.50680400
Se   17.65934000    3.94586000    4.77426000      0.519069    0.33433800   -0.49251200
Se   14.11082000    3.81720000   13.71609000      0.124979    0.57340000    0.33133100
Se   14.88177000    4.97245000   16.41963000      0.545368    0.28957100    0.05935900
Se   19.94570000    3.28247000   13.44904000      0.110140   -0.43286500    0.02775500
Se   19.79550000    9.74835000    1.12982000      0.317822   -0.54251900   -0.43566100
Se   16.10906000   19.29760000    6.79876000     -0.068368    0.47972400   -0.38962900
Se   19.14302000   18.70559000    0.66706000      0.027437   -1.21243300   -0.48492200
Se   19.93318000   19.22328000    9.48553000     -0.050755    0.59104800    0.94500000
Se    3.67166000   23.28730000    3.86120000     -0.240340    0.01735500    0.84801100
Se    2.84116000    6.48449000   11.14489000      0.045379   -0.52637900    0.67788000
Se    5.74359000   11.55154000    0.25881000     -0.118740    0.09742900   -0.15460200
Se    5.02170000   13.08539000   10.99397000     -0.556622   -1.38048500   -0.47885600
Se    3.48368000   12.74787000    0.38368000      0.548701    0.92853100    0.00530200
Se    3.30969000   16.86295000   11.41444000     -0.135595    0.42346900   -1.11234700
Se    5.74508000   21.78439000   19.87045000      0.123619   -1.28438900   -0.34438600
Se    5.47350000   19.98966000   12.37097000     -0.094941    0.00696300   -0.88586900
Se   10.67951000    5.69718000    1.83259000      0.685382    0.27556600   -0.47451800
Se    8.10592000    2.07390000   10.77011000     -0.815997    0.43783300    0.36364700
Se   10.69111000   11.90759000   18.27019000      0.046048    0.24284300    0.67975000
Se   10.25114000   11.97243000   11.25056000     -0.992492    0.40498900   -0.41231000
Se   11.56185000   15.68839000    2.45477000      0.099673   -0.14785700   -0.38810400
Se   12.06321000   15.78468000   12.90297000      0.527066    0.19458600   -0.15699200
Se   11.01229000   22.87053000   18.34816000      0.072504    0.75624800    0.01472500
Se    9.94603000   23.32770000   11.86467000      0.915029   -0.13923300   -0.83742000
Se   12.01473000    4.14227000   17.98143000      0.314582   -0.08410800    0.00736500
Se   17.50585000    8.08895000    9.19668000      0.249872    0.08827100    0.31397800
Se   16.79935000   10.48649000    2.91146000      0.088971    0.65953900   -0.36045600
Se   18.48006000   13.29404000   10.56477000      0.462043    0.56979400    0.31824600
Se   19.53072000   15.44043000    2.05337000      0.281472   -0.96758900    0.66180500
Se   13.91037000   15.94914000    8.16846000      0.559659    0.26690300   -0.07765600
Se   17.62484000    0.40906000    0.23126000      0.166553   -1.10686800   -0.03933100
Se   16.97083000    0.78558000   10.66506000     -1.730779   -0.41469700    0.66115700
Se    0.62779000    2.10389000    1.10920000      0.157245    0.76123700    1.50984600
Se   22.10918000    3.90165000   10.06082000     -0.468642    1.85733100    0.06202200
Se   22.14245000    5.01114000    2.16589000      0.239655   -0.17954400    0.38800700
Se   21.62487000   12.15703000   12.31616000     -0.315798    0.86598100    0.11775100
Se   23.27491000   14.09519000    4.26368000     -0.653852    1.13163400   -0.26637000
Se   21.26986000   15.91523000   11.76942000      0.774402   -2.60549000   -0.57416900
Se   22.95523000   21.69988000    2.38712000      0.124165   -0.27656600   -0.14619500
Se   21.80682000    0.20956000   15.09494000      0.208623   -0.36643300   -0.05438800
Se    4.04922000    3.46700000    9.48273000      0.215240    0.62333000    0.40627800
Se    4.02892000    6.05310000   19.24552000      1.143869   -0.34299800   -0.48599100
Se    4.30133000   11.82448000    8.47850000      0.255673    0.12491300    0.58374200
Se    4.29992000    6.88601000   14.59703000     -0.936530   -0.21994900    0.85379800
Se    7.00677000   19.11364000    6.23834000      0.225716    0.08361600   -0.03758100
Se   21.76304000   15.74840000   19.59758000      0.164318   -0.20297300   -0.01986100
Se    1.60761000   21.67318000   11.23634000     -0.479566    0.35460400   -0.35768400
Se    2.81313000   19.84381000   17.80462000     -0.103059   -0.27407500    0.48477700
Se    7.44392000    3.13236000    8.02798000     -0.785517    0.71971300    0.24619200
Se    6.07125000    4.10629000   19.75603000     -1.277250    0.21950300    0.11163200
Se    6.19141000   10.08266000    6.02355000      0.043715    0.36274600   -0.36567200
Se    3.82371000    9.67426000   18.83045000     -0.041634   -0.26060900    0.02562200
Se    6.48175000   18.05485000    9.48881000      0.918604    0.13128300   -0.02895800
Se    6.13449000   15.22782000   18.11039000     -0.467861    0.93440200    0.45826600
Se    9.33728000   20.75309000    9.01649000      0.154754   -0.04850500   -0.20448800
Se    8.79579000    2.82851000    0.19395000     -0.659935   -0.26942800    0.45711500
Se   14.57834000    3.09869000    8.03416000     -0.095373    0.15969500   -0.49894100
Se    8.78146000    5.36029000   16.57332000     -0.617446   -1.06735100    1.02846600
Se   10.90513000    5.38014000    8.80373000     -0.713218   -0.53675900    0.25601000
Se   18.49852000   10.89817000   16.59352000      0.178700   -0.47570500   -0.24829300
Se   12.87753000   20.03581000    8.22744000      1.010389   -0.15608200    0.13813300
Se   15.83266000   16.06811000   16.70143000      0.425415   -0.37136300    0.53236900
Se   15.92594000   23.57485000    7.09872000     -0.521471   -0.50173600    0.10599600
Se   19.04081000    3.60591000   16.68744000      0.078965   -1.09335600    0.35862900
Se   17.93158000    4.40825000   10.64235000      0.407023   -0.18694500    0.42400300
Se   23.36958000    3.50919000   16.50686000     -0.038793    0.31373800    0.25298300
Se   19.37077000    8.91496000   12.52666000      0.767336   -0.15412700    0.95758300
Se   20.64492000    9.25353000   16.37331000     -0.831532    0.34001800    0.71395200
Se   15.48232000   18.91929000   11.12107000      0.889970    0.34118500   -1.17736300
Se   19.12039000   14.52444000   17.07125000     -0.490876   -0.26984100    0.47721300
Se   18.51847000   22.97649000    7.41773000     -0.831576   -0.10679500    0.62645000
Se   17.64816000   20.48396000    1.13374000      0.195076    0.21533700   -0.59358000
Se    4.87905000   22.16006000    8.57696000      0.123074   -0.31414300    0.54427200
Se    3.62370000    2.84445000    0.99573000      0.436544   -0.02812300    0.12824300
Se    6.77645000    7.05922000   10.03165000      0.147690   -0.91820400   -0.40271500
Se    4.93519000    8.01158000    0.57938000     -0.429669   -0.34752400    0.13599500
Se    4.90983000   16.15228000    6.14740000      0.360829   -1.05884100   -0.41393800
Se    7.25871000   12.15347000   17.00139000     -0.371690   -0.61806500   -0.09228900
Se    2.93983000   18.96692000    8.96107000     -0.687612    0.09821900   -0.46779700
Se   21.83646000   19.62511000    1.34357000      0.121238    0.72624200   -0.08502400
Se    8.65043000   23.39249000    7.07521000      0.794049    0.20191900    0.69141800
Se   12.37341000    4.00121000    2.69474000     -0.148575    0.44825100    0.03678000
Se   10.53603000    1.89842000    9.35965000      0.119860    1.70928100   -0.14712200
Se    8.30802000    6.40982000    0.54105000     -0.051462    0.55682900   -0.09590300
Se   11.20355000   14.20050000    7.83652000     -0.787327   -1.41134800   -0.88210100
Se    9.29216000   13.40986000    0.69747000     -0.044499   -0.15073500   -0.90217000
Se   13.55227000   22.97960000   10.13510000     -0.172194    0.16427100    0.26634900
Se   15.28934000   12.35770000   16.61288000     -1.000695    0.45517000    1.32265100
Se   18.17022000    2.67497000    6.91614000      0.225453    0.98112400    0.67973200
Se   16.19613000    3.92847000    1.81727000      0.093067   -0.44216900    0.47320900
Se   15.21793000    8.19018000    8.89984000      1.088887    0.74575900   -0.24994000
Se   15.27453000    8.10300000   16.93596000     -0.159324    0.32584100    0.39348800
Se   15.05797000   13.93647000    8.61902000     -0.149281    0.50723000    0.19631700
Se   16.73221000   12.91104000   19.61717000      0.412840   -0.32197600    0.06108000
Se   13.62705000   19.93840000    3.12498000      0.315306    0.18197800   -1.20036000
Se   19.49650000   21.51224000   17.84241000      0.198499    1.22631700   -0.30828900
Se   22.36845000    0.95352000    7.90606000     -0.669729   -0.53701300   -2.20761800
Se    0.52881000    0.76591000   15.60044000     -0.224961   -0.26700600    0.27554000
Se   21.69804000    7.45937000    9.25548000      0.236295   -1.05383600   -0.47612800
Se   23.20602000    7.89592000   16.97640000     -0.306798   -0.03028400   -0.72070100
Se    0.36149000   10.72023000    7.67078000     -0.904851    0.20693400   -0.47091800
Se   22.44729000    8.71177000   19.06554000      0.318029   -0.18770100    0.69432500
Se   21.26476000   17.59157000    8.23537000      0.861244    0.05338100   -0.32545900
Se   18.66551000   17.88589000   18.40215000      0.228697    0.22506200   -0.10204200
Se    1.17817000   23.08349000    9.14185000     -0.052797   -1.54041800    0.56044800
Se    2.52371000    0.69732000   12.63235000      0.019455    0.06943800    0.25162500
Se    2.33592000    8.21578000    8.44132000      0.757746    0.36436900    0.15714600
Se    2.51395000    7.89926000   17.78984000     -0.554165    0.11257800    0.41025500
Se    1.69957000   16.41279000    8.72584000     -0.703474   -1.16073200    0.15268600
Se    0.60109000   12.73088000   17.88459000      0.048577    0.20217000    0.27551300
Se    3.71889000   19.83364000    5.21689000     -0.353481   -0.08069000    0.06121700
Se   22.83532000   19.76842000   16.95896000      0.655696   -0.99147700    0.81265800
Se    6.98231000   23.23872000    4.29831000     -0.538858    1.23256700   -0.28825600
Se    5.70434000    0.73845000   18.42902000      0.423492    0.43168200   -0.97489000
Se   11.23319000    6.36459000    5.28244000      0.516208    0.10080100    0.15979900
Se    6.00753000    7.89993000   15.76035000      0.911173    0.42814700    0.65906100
Se    7.39086000   14.57878000    8.07374000     -0.563053    0.39425600    0.84609400
Se    8.32500000   18.39986000   13.60890000      0.203034    1.37026300    0.93889900
Se    7.73929000   16.43160000    2.90952000     -0.876228   -0.52718700   -0.36524900
Se    9.19708000   15.55890000   14.97538000     -0.305205    0.23270500   -0.31107300
Se   14.77714000   21.41884000    4.60015000     -0.126267    0.37250400    0.66130200
Se   13.67897000   22.76943000   15.68565000      0.369996    0.04891100    1.23760900
Se   13.79357000    7.96083000    4.70137000     -0.526428    1.25643300   -0.71916800
Se    9.83849000    7.60428000   13.62401000     -0.201565    2.85900700   -0.34971800
Se   14.13942000   13.02342000    4.74720000     -0.310514   -0.20449900   -0.27798700
Se   14.44964000   15.57883000   14.54307000     -0.356805   -0.24239700   -0.49247400
Se   11.76462000   18.75373000    3.81754000     -0.272009   -0.09724600    0.61309800
Se   16.75089000   20.77166000   17.30907000     -0.469394   -0.62185800   -0.02164600
Se   17.49934000    1.66114000    4.32228000     -0.285079   -0.85291300   -0.57013200
Se   19.77802000    1.85729000   18.32000000     -0.628119    0.92670500   -0.34555200
Se   20.12611000    7.36585000    4.19911000     -0.481826    0.53488000    0.80096100
Se   20.00534000    5.59407000   17.29988000     -0.288803    0.58661700   -0.01060600
Se   20.30504000   12.08666000    4.43998000     -0.392690   -1.37399100    0.84337100
Se   16.54233000   12.37348000   12.43352000      0.236494    0.45359100    0.44708200
Se   19.24270000   17.99492000    4.09380000     -0.243361    0.17720100    0.24457100
Se   21.23999000   20.29400000   13.89179000     -0.849870    0.16443400    0.25676300
Se    5.51319000    6.10599000    7.45834000     -0.063258   -0.17472000   -0.95171900
Se    2.93962000    3.90930000   17.07336000      0.368575   -0.45631600    0.16599900
Se    3.07880000   10.25534000    2.89176000      0.997733   -0.54549300   -0.14270000
Se    4.81900000   11.15444000   14.19385000     -0.426221   -0.01074100   -0.47594300
Se    4.10438000   13.84485000    5.37887000      0.751630    0.90928800    0.61789100
Se    1.79547000   16.98363000   18.79275000     -0.551033   -0.69869400   -0.01786300
Se    2.17682000    0.05851000    5.74668000     -0.227222   -0.08240500   -0.92056900
Se    3.73784000   20.02488000   13.89545000     -0.617514    0.45456400   -0.10720500
Se   12.31242000    0.50714000    6.41646000     -0.075716   -0.30234600   -0.19967100
Se    6.97257000    3.67865000   16.06666000      0.579377    0.11679000   -0.23180500
Se   10.88208000   11.66973000    7.33456000     -0.636062    0.87494400    0.73233500
Se   11.53597000   14.00005000   17.44461000      0.289493    0.44830900   -0.03456000
Se   10.46784000   17.48139000   10.70006000     -0.863546    0.56253700   -0.55645800
Se   11.66255000   19.70593000   19.10745000     -0.712969   -0.07442700    0.35270200
Se   10.32287000   21.45271000    3.81435000      0.673522    0.51766300    0.06436700
Se    7.81820000   20.97833000   18.67011000      0.569367   -0.28938900   -0.19935500
Se   15.24481000    5.17845000    6.04811000      0.026210   -0.38618200    0.12145900
Se   14.15150000    5.97650000    0.77170000     -1.239312    0.74026500   -0.97250400
Se   16.15267000   10.65626000    6.85404000     -0.057091    1.27585400   -0.10975400
Se   17.81819000    6.98207000   14.05395000     -0.118786   -0.05293000   -0.18749900
Se   17.55232000   14.17190000    4.85936000      0.444425    0.18126100    0.95981900
Se   13.15623000   18.89213000   15.75233000     -2.013570    0.34386500    0.50128600
Se   16.17630000   22.38179000    2.94003000     -0.277494    0.49461600    0.35325700
Se   17.63125000    3.53933000   13.03578000     -0.407173    0.22812100   -0.08982100
Se   21.59205000    4.78753000    6.17967000     -0.510355   -0.23210800    1.20619100
Se   22.69972000    5.18480000   13.80334000      0.764757   -0.64364300    1.75806500
Se   17.56346000   10.32414000   11.81619000      0.115697   -0.90142100   -1.22689000
Se   22.38167000   14.33669000   15.29911000     -0.110878   -0.40849400    0.32774400
Se   18.29702000   16.06461000    7.50807000     -0.086292    0.71359200    0.29241100
Se   22.34271000   16.59969000   15.75513000      0.417911    1.00179700    0.30360500
Se   21.08031000   22.78163000    8.52248000     -0.112688    0.06089400    0.52437800
Se   22.66942000   23.05933000   18.98193000     -0.120458    0.41758500   -0.23593500
Se    3.80785000    2.86750000    7.11135000      1.766263   -1.31452000   -0.06860600
Se    4.69755000    0.34334000   15.19488000     -0.786073   -0.55102600   -0.03036300
Se    4.22075000    5.62648000    3.91312000      0.391135   -0.85310600   -0.96947500
Se    4.79784000    9.30003000   11.27117000     -0.688707   -0.14532700    0.36801200
Se    1.62552000   11.96062000    3.57465000     -0.136144   -0.21741000   -0.22895700
Se    3.74956000   14.38832000   15.87450000      0.184730   -0.91670800    0.69452700
Se    3.83003000   16.95479000    1.65261000     -0.006412    0.53873700    0.31822400
Se    3.71172000   16.52749000   13.65686000     -0.754242   -0.89133400    0.77759100
Se   11.04620000    0.89972000    1.89349000      0.944116   -0.08071100   -0.66169000
Se   11.19589000    1.70633000   14.77759000     -0.677844    1.28669300    0.69783400
Se    9.92297000    9.26459000    3.14963000      0.190534   -0.56120900    0.49157700
Se    9.63632000    8.90301000   16.89026000     -0.514351   -0.04829600   -0.09675900
Se    8.27049000   12.94429000    4.75586000      0.091898    0.35204300    0.54487700
Se   12.10051000   11.22913000   12.25774000      1.759369   -0.28373500    1.25315300
Se    8.75974000   19.42297000    1.70618000      0.007994   -0.66166800    0.32431100
Se    8.64974000   22.33140000   15.02591000     -0.111102    0.17010500    0.07472500
Se   19.06995000    4.57451000    8.22996000     -0.035879    0.22047200    0.42268100
Se   14.84454000    0.52795000   17.33805000     -0.051882   -0.05852700   -0.18605100
Se   16.99573000    7.75593000    2.40611000     -0.442995   -0.17770600    0.95742700
Se   13.48335000    7.64571000   13.60177000     -0.260213   -0.31392200    0.65810400
Se   17.55752000   12.77805000    2.04261000      0.271439   -0.97835500   -0.54004700
Se   19.33905000   17.67947000   13.67165000      0.725306    1.90742600    0.47297900
Se   15.27713000   17.20752000    3.17758000     -0.150035   -0.47104100   -0.70029200
Se   17.17777000   20.38595000   14.25784000     -1.278396   -1.38216500    0.28435200
Se   22.42208000    1.87272000    4.74714000      0.225187    0.46121000   -0.62111400
Se   22.53801000    0.68748000   11.85859000     -0.492704   -1.03881800    0.71038900
Se   23.65511000    7.64171000    5.56139000      1.013056   -0.06172700   -0.78668700
Se   21.82586000    7.01439000   12.96587000     -0.993662    2.37406500   -1.36902900
Se    0.55009000   17.68593000    6.95242000      0.188090    0.35589700   -0.74383200
Se    0.55426000   11.52794000   14.22082000      0.311427   -0.14003900    0.81957500
Se   22.36071000   20.76738000    6.64879000     -0.159175   -0.27827400   -0.09359400
Se   19.11154000   21.85463000   10.96102000      0.227933   -0.52351700    0.06107000
Se    2.02771000    4.14367000    6.78497000     -0.804748    1.47049200   -0.66399900
Se    1.76805000    4.38926000   11.71407000      0.398510    0.16088300    0.11433700
Se   22.58926000   11.00009000    4.25158000     -0.970180   -0.32789000    0.05242600
Se    1.92567000    7.92680000   13.19744000     -0.280218    0.18383000    0.17323900
Se    0.95484000   14.95044000    2.06015000     -0.897966    0.33745200    0.17856100
Se    1.22028000   16.31798000   14.18808000      0.454369    0.55552600    0.16949400
Se    2.51968000   19.71122000    1.77033000     -0.336974    0.35482900    1.06458800
Se    6.68850000   17.45351000   18.81638000     -0.083543   -0.10389600   -0.67249500
Se   10.74994000    2.52288000    5.16051000     -0.045490   -0.25783100    1.18765700
Se    8.09300000    2.29877000   13.09243000     -0.173275   -0.04584300    0.13413600
Se    5.90793000    8.59450000    3.26511000      0.602969    0.23563900   -0.15196400
Se    8.55303000   10.98036000   13.53295000     -0.714057   -0.91259000    0.22787100
Se    6.72692000   14.51326000    1.68843000      0.964885    0.20861900    1.15415400
Se   10.30801000   14.06190000   13.07933000     -0.321520    0.45493800    0.31846100
Se    5.96765000    0.10603000   10.02583000      0.079476   -0.53805800   -0.29250800
Se    5.40808000   19.47644000   16.26872000      0.235219    0.09744700    0.13251800
Se   13.44663000    0.38113000    2.60732000     -0.442123    0.62026700    0.30814200
Se    9.82153000    5.44039000   13.23967000      0.700252   -2.63931700   -0.21259500
Se   13.80572000   10.92692000    1.32920000     -0.037033   -1.44856700    0.48585500
Se   15.09128000   10.82836000   13.73303000     -0.342597   -0.56533600    0.11123900
Se   10.38537000   16.87076000    6.12190000     -0.277136   -0.06527500    0.06103600
Se   13.60236000   18.87768000   12.44897000     -0.286599   -0.61086600    0.28715600
Se   14.54009000   21.56213000    0.13198000      0.965058   -1.00327800   -1.16135200
Se   15.38806000   22.34859000   14.17647000     -0.298440    0.50669500   -1.04760800
Se   19.38321000    5.15782000    0.45402000      0.126185   -0.33503800    0.69792500
Se   14.21818000    6.48832000   10.40978000     -0.051045   -0.33609600   -0.47885100
Se   20.71205000    7.58983000    1.99500000      0.482955    0.68734400   -0.63543900
Se    1.48941000   13.10686000   12.75777000      0.612176    0.62175500   -0.50641600
Se   21.41742000   18.45200000    3.43068000      0.967158   -0.36548600    0.61141200
Se   18.13121000   15.82064000   13.66966000     -1.676216   -0.59200100    0.07762400
Se   19.78198000   22.49289000    3.87604000     -0.090458   -0.92680600    0.03191100
Se   19.07896000   23.48165000   14.05478000      0.060255    1.38359100    0.96407500
