384
23.69824000 23.69824000 19.89960000
Ge    5.13947000    6.56497000   12.22161000      1.207288    0.48914400    0.64460300
Ge    6.70344000    4.17020000    3.66672000     -0.750744   -0.26751900   -0.15137200
Ge    1.63351000   12.73941000    7.39192000      0.516025    1.10941600   -0.19048600
Ge    9.67030000   13.16644000   15.59717000      0.103511    0.21805300    0.21120900
Ge    5.08230000   15.52241000   10.02169000      0.237498   -0.52098600    0.70366400
Ge    9.45933000   18.59260000   19.18849000     -0.021602    0.49566600    0.39439600
Ge    7.49702000   22.80015000   12.52702000      0.020335   -0.08116500   -0.12278100
Ge    5.07339000    0.22544000    1.00222000     -0.436540    0.78534900   -0.46929000
Ge    9.22743000    5.07010000   10.64281000     -0.386627    0.47048900   -0.51885000
Ge   11.85211000    6.17298000   19.64261000      0.619136    0.41481200   -1.13524800
Ge    9.82986000    7.84094000   11.03709000      0.928101   -0.91354300   -0.41075200
Ge   13.36125000   11.75550000   18.79499000      0.101428    0.22825400    0.02656800
Ge   11.14297000   19.93236000   10.39580000      0.590649   -0.55805000   -0.09945500
Ge   12.50591000   15.91219000   19.24408000      0.307925   -0.05794900    0.74717800
Ge   10.94296000   23.11436000    8.75520000     -0.290665    1.02089500   -0.32469300
Ge   16.29281000   22.62114000   18.70384000     -0.279040    0.80486700   -0.12040800
Ge   20.36520000    5.03323000   11.59041000     -0.022441   -0.33618400    0.37573600
Ge   20.15164000    8.22240000   18.79028000     -0.365334    0.28479900    0.56089100
Ge   20.03159000   11.11668000   10.75570000     -0.479858   -0.07926200   -0.36783000
Ge   19.24318000   12.50323000   18.87925000     -1.378838    0.00147200   -0.56577300
Ge   15.09820000   20.92556000    8.80500000      2.480394    0.78905300    0.85721800
Ge   17.13416000   16.16887000   18.98813000     -0.943388   -0.48803500   -0.21162200
Ge   19.92784000    0.78846000   11.84678000     -0.553957    0.25801500    0.79128600
Ge   20.22198000    3.84421000    2.59850000     -0.262526   -0.81148700    1.09584300
Ge   23.48432000    5.83213000    7.51510000     -0.560862    0.76772800   -0.17121100
Ge    2.19021000    3.85679000    3.26511000      0.786000   -0.74131800    0.75373300
Ge    1.57370000   10.35928000    9.84398000      0.144840    0.09872000   -0.30691700
Ge    1.50085000    8.25261000    0.34813000      0.445841    0.02349900   -0.35462000
Ge   20.53222000   15.20735000    8.41348000      0.528586    0.22758000    0.49801400
Ge    0.49954000   14.66391000   19.58039000     -0.234280    0.37669300   -0.49435800
Ge   18.63005000    1.22640000    9.27123000      0.697971    0.06173700   -0.25987300
Ge    0.53956000   20.59297000    0.04890000      0.958034    0.46700600    0.49192300
Ge    5.31995000    9.29833000    8.37604000     -0.982598    0.16785900    0.46273700
Ge    1.97172000    4.37439000   19.83833000      0.092617   -0.48368600   -0.10408900
Ge    2.07800000    8.86346000    6.00286000      0.876563    0.53597500    0.76903200
Ge    4.90377000   11.57863000   16.46819000     -1.674909    0.44920600   -0.22517100
Ge    5.72178000   17.66122000    3.78761000      0.545189    0.01924000   -0.19914100
Ge   23.30775000   17.40333000   18.16852000     -0.838248   -0.06195000   -1.19090100
Ge    4.89782000   20.05151000    9.87410000      0.457713    0.46279100    0.18708800
Ge    4.48283000   21.79209000   17.49207000     -0.383572    0.36844300    0.87915800
Ge    9.31627000    1.89994000    7.13138000     -0.931280   -0.01394900    1.99989900
Ge    7.60717000    8.27481000   18.25612000      0.166860   -0.07193600    1.33117000
Ge    6.19703000   12.77543000    6.87316000      0.092955   -0.46015100   -0.43921700
Ge    7.90078000    8.44061000    1.90397000      0.037787    0.46861500   -0.12477300
Ge    8.95911000   18.12538000    8.20681000     -0.500758   -0.02973600   -0.35437200
Ge    4.06898000   19.26120000    0.05452000      0.117829    0.05064800    0.19961600
Ge   11.30676000   21.36904000    6.50103000     -0.210380    0.78679600   -0.27356000
Ge    9.75600000    3.58752000   18.01131000     -0.930609   -1.21282000    0.48461700
Ge   13.30406000    6.53145000    6.63415000     -1.159176    0.96629700   -1.03428800
Ge   14.26288000    8.98805000   19.86279000      1.189074   -0.48209600    0.17777400
Ge   15.89043000   13.30229000    6.40258000      0.534853    0.22659800    0.16006000
Ge   17.11883000   13.83636000   15.52353000      0.081246    0.47791900    0.10588100
Ge   13.08898000   16.22797000    4.22372000      0.372391    0.98648800   -0.15573000
Ge   15.17035000   18.01329000   14.42435000      0.855790    1.37478300    0.77887300
Ge   15.06086000    0.98946000    9.14234000     -0.561208   -0.41019200   -0.85328400
Ge   15.62626000    4.73158000   19.23151000     -0.131475   -0.46674000    0.14112300
Ge   19.87483000    6.63201000    7.11188000      0.455699    0.81968900   -0.69786600
Ge   22.23023000    5.54312000   16.10615000     -0.159078    0.81425100    1.03062300
Ge   20.47019000    9.20213000    8.25866000     -0.085423   -0.04622600   -0.11470900
Ge   21.42159000   13.75984000   17.74761000      0.887014   -0.06763500    0.51202100
Ge   18.65645000   18.70502000    7.19847000      0.177272   -0.25912500    0.15452600
Ge   20.47220000   19.70308000   16.36495000      0.055741   -0.43450600    0.10823900
Ge   19.59867000    1.12700000    5.68998000      0.103384   -1.28727800   -0.89654000
Ge   19.71644000   22.35426000    0.57784000     -0.626683    0.11210400    0.05728200
Ge    4.95854000    2.05865000   11.52104000      0.050482   -0.48724900   -1.12430700
Ge    5.14788000    3.12500000   17.88327000     -0.290242    0.48088300   -0.73142100
Ge    3.57219000    6.29772000    6.13957000     -1.095572    0.71173400   -0.44355500
Ge    2.61365000   10.56285000   12.62745000      0.502174   -0.66197600   -0.57322300
Ge    3.35978000   18.17633000    6.67499000     -0.727250   -0.68073900    0.60909500
Ge    0.91707000   13.70450000   15.47336000      2.869179    0.55644200    0.88713100
Ge   22.70731000   21.92194000   10.95638000      1.023805   -0.40798800   -0.01917700
Ge    2.17165000   22.67575000   14.43239000      0.517525    0.97768200    0.26187100
Ge    9.74358000    3.59823000    2.36589000      0.449567   -0.26839100   -0.03673600
Ge    9.28128000    1.41958000   16.50385000     -0.150838   -0.34296400   -0.03097000
Ge    8.83664000   10.41572000    5.37285000     -0.641029    0.73945500    0.44399200
Ge    7.81715000   10.05702000   15.72156000     -0.045299   -0.16413100   -0.30325400
Ge    9.22070000   14.59551000    6.55010000      0.052648    0.26985100    0.31923800
Ge   16.19387000   10.11682000   15.91906000     -0.085849   -0.02486500    0.70793000
Ge    8.24674000   21.17262000    5.04845000     -0.599033   -0.72541700    0.18369800
Ge    7.73219000   19.58052000   16.73789000      0.550879   -1.08569400   -1.26501900
Ge   14.38855000    2.41203000    5.61044000      0.015503   -0.46146100   -0.82865400
Ge   13.38367000    2.94899000   15.92599000     -0.153457   -1.08798900    0.33823000
Ge   15.00666000   10.70424000    4.86997000      0.123940   -0.91385700   -0.64980600
Ge   15.53247000    6.66646000   14.79794000     -1.627992    0.35680600    0.77287000
Ge   15.96961000   14.35229000    2.87484000     -0.567207    0.79084700    0.75782000
Ge   12.06198000   16.16538000   15.54472000      0.260596    0.24567400    0.10649100
Ge   14.64099000   19.54537000   17.98492000      0.021172   -0.50557400    0.29139900
Ge   10.24408000   21.42705000    0.61670000      0.027566   -0.01165400   -0.06364100
Ge   23.35571000    4.41308000    4.53145000      0.220525   -0.54792000   -0.93553400
Ge   22.87962000    2.38345000   13.81682000      0.360182    0.88470500    1.85530000
Ge   21.54807000    8.96260000    5.52664000      0.101268   -0.06062700   -0.36382200
Ge   21.09932000   10.14466000   13.98256000      0.411124    0.58515100    0.54235900
Ge   22.29782000   16.29360000    5.77349000     -0.069014   -0.06588300   -0.22468400
Ge   19.79103000   14.18261000   12.45217000     -0.129081    0.10368100   -0.12153000
Ge   20.00756000   20.76862000    5.85480000     -0.029966    0.68268400   -0.52795900
Ge   20.86230000   23.65668000   17.26873000      0.581449    0.69836500    1.24499800
Ge    6.18853000    4.07429000    6.21148000     -1.259808    0.01767500   -1.10242000
Ge    2.75968000    3.31159000   13.55973000     -0.194323   -1.01576900    1.95211000
Ge    5.79145000   11.11487000    2.79939000     -0.711725    0.18761800   -0.29060900
Ge    7.10732000    8.69969000   13.28389000     -0.064887   -0.00703500   -0.74722700
Ge    4.76039000   15.13799000    0.24178000     -0.291631   -0.96828200    1.01851000
Ge    4.10423000   13.91794000   13.38853000     -0.236684   -1.49765600    0.06849000
Ge    5.23138000   22.49802000    5.67276000     -0.282672   -0.51448000    0.40957400
Ge    5.72797000   21.91919000   14.68796000     -0.027310    0.75542500   -0.02252700
Ge   15.10160000    6.09590000    3.40715000     -0.439165    0.14542800    0.20580700
Ge   13.46922000    0.20285000   12.35269000      0.034910    0.17051800    1.29728400
Ge   11.29117000   10.55452000    1.06675000     -0.614993   -0.52423400    0.26649200
Ge   13.73319000    9.54781000   11.39978000      0.205760   -0.71056700   -0.26990100
Ge   11.35506000   13.11559000    2.12861000      0.111365    0.39621500    0.22682800
Ge    7.86451000   17.43428000   11.46748000     -0.204074    0.20278500    0.33078500
Ge   12.63225000   22.20286000    1.36119000      0.443244    0.25457800    0.72122800
Ge   11.23658000   23.11848000   13.83347000      1.266263   -0.22682700    1.81704400
Ge    1.10631000    1.24418000   18.98391000     -0.605479   -0.53473000   -0.31767600
Ge   12.45486000    5.53008000   12.53449000      1.101295   -0.22996000   -0.55074500
Ge   17.30021000    5.50816000    1.06263000     -1.720747    0.67755700    0.43837200
Ge   12.41268000    7.23659000    8.88983000      1.272486   -2.06217000    0.12837000
Ge   21.17996000   13.65068000    2.90397000     -1.197862    1.39379600    2.59497400
Ge   15.93180000   17.41934000    8.53982000      0.538010    0.69544500    0.66181600
Ge   18.06273000   20.16145000    3.59159000     -0.525453    1.31973700    1.00882000
Ge   19.17640000   21.34154000   13.06061000     -0.577324    0.01841000    2.34385200
Ge    0.32736000    0.50665000    3.52923000     -0.115658    0.18976400    0.13416800
Ge   23.30276000    1.87437000   10.01908000     -1.386001    0.46973600   -0.45131700
Ge   23.42765000   10.87802000    1.64736000      0.119153   -0.00713200    0.20987300
Ge   23.52526000    9.22817000   13.31967000     -1.729969   -0.11489200   -0.53325700
Ge    3.09182000   14.14934000    2.85097000      0.758523   -0.87898000   -0.63052600
Ge    0.73933000   16.06566000   11.52447000      0.030397    1.03039600    0.29232900
Ge   23.53226000   21.92517000    5.06910000      0.797873    0.45026800   -0.46933900
Ge   21.07197000   18.39042000   11.65030000      0.417672   -0.02105700    0.35712200
Se    2.31036000   22.85452000   19.40292000      0.303609   -0.31546900    0.13002700
Se    1.92805000    1.47572000    9.60635000      0.706757    0.26503200   -0.05302400
Se    1.56847000    5.74654000    2.02552000     -0.397405    1.83915600   -0.44381500
Se   23.04594000    9.64942000   10.94375000      0.022754    0.40051000   -0.19462700
Se   21.99034000   12.78641000    1.03739000      1.007278   -0.90424100   -2.08996800
Se    0.06574000   14.66869000    8.32953000     -0.534136   -1.61835600   -0.00277700
Se    1.36155000   19.89651000    4.53341000      0.049682    0.01465800   -0.11617700
Se   23.65593000   18.87157000   11.36412000     -0.830350   -0.63771900    0.08668600
Se    6.73553000    1.65290000    2.72217000      0.009321    0.14870100   -0.04313400
Se    5.11449000    3.71806000   13.27015000      0.516013    0.69466800    0.18549700
Se    8.95279000    4.76154000    4.72703000      0.957572    0.22481300    0.29090700
Se    7.77872000    9.02072000   10.73442000     -0.445892    0.56317600   -0.39795400
Se    8.29173000   10.18046000    0.36084000     -0.918575    0.26904800   -1.17578000
Se    6.53146000   15.44289000   12.19561000      0.168396   -0.15287700   -0.63827900
Se    6.69327000   20.00428000    2.96041000      0.957389   -0.35423000   -0.75501600
Se    8.97374000   20.57234000   12.58493000      0.148188    0.51067700   -0.31604200
Se   11.91861000    1.19711000   19.24081000     -0.289190   -0.43328300    0.42952600
Se   13.69028000    2.60544000   11.79766000     -0.410186   -0.61336800   -0.88249000
Se   12.00921000    8.85387000   19.08293000     -1.039357   -0.75083600   -0.20487000
Se    8.54278000   11.35240000    8.24899000     -0.480959   -0.33806800    0.24201100
Se   13.32625000   13.77935000    0.48848000      0.076271    0.20922900    0.05600700
Se   11.71677000    9.30803000    9.44584000     -0.710249    0.94349300    0.98052400
Se   14.78999000   17.53145000    0.11244000      0.076778    0.01388000   -0.27618900
Se   12.03346000   20.60094000   12.68065000     -0.109406    0.45377200   -0.08298700
Se   17.44118000    3.87428000    4.60555000      0.489037    0.16205300   -0.24338200
Se   14.25096000    3.76822000   13.74996000      0.281037    0.50497100   -0.14618500
Se   14.65641000    4.93982000   16.44391000      0.890000    0.99262300    0.23154300
Se   19.93200000    3.13510000   13.38296000     -0.365848    0.00071500   -0.49705800
Se   19.96320000    9.81514000    1.23742000      0.036469   -0.03612700   -0.67288600
Se   16.02307000   19.39466000    6.80466000      0.422477   -0.80076700    0.29678000
Se   19.09944000   18.93672000    0.67284000      0.905509   -2.03250700   -1.24264000
Se   19.74029000   19.43886000    9.76189000      0.324995   -0.11331800   -0.47930700
Se    3.68940000   23.12756000    3.94673000     -0.291914    0.41259800   -0.34202700
Se    2.92311000    6.44087000   11.37811000     -0.780377    0.23026900   -0.91843200
Se    5.76773000   11.39407000   19.82784000     -0.090767    0.44492800    1.34075300
Se    4.97048000   12.90650000   11.00024000     -0.479612    0.38403700   -0.97975100
Se    3.54621000   12.79736000    0.23370000      0.580780    0.82932800    0.18932100
Se    3.28128000   16.89703000   11.48861000      0.054421    0.04632800    0.25799600
Se    5.53161000   21.56148000    0.18191000      0.302367   -0.70890500   -0.54389000
Se    5.51002000   19.89543000   12.33632000     -0.176686   -0.03284500   -0.31599200
Se   10.90048000    5.84455000    1.90099000     -0.053825   -0.73223100    1.09778500
Se    7.93760000    2.01726000   10.86922000     -0.294300    0.40436600   -0.40935500
Se   10.61201000   11.99207000   18.35803000      0.191967    0.32859600    0.67235200
Se   10.23854000   12.09731000   11.23181000      0.767189   -0.32867500    0.42464300
Se   11.49053000   15.63742000    2.48722000     -0.146936    0.39207400   -0.39552700
Se   12.03620000   15.80235000   13.09255000      0.388311    0.43238100   -0.61821300
Se   11.15058000   22.76685000   18.43616000      0.083707    0.31444200   -0.20114800
Se    9.94059000   23.23460000   11.99880000     -0.695112    0.55564500   -2.58500900
Se   12.04498000    4.02057000   18.11302000      0.209620    0.53592300    0.49127800
Se   17.54403000    7.96808000    9.28085000      1.032772    0.26642600    0.11562000
Se   16.84325000   10.61918000    2.68759000     -1.324291   -2.62271600    1.04705700
Se   18.55543000   13.21216000   10.64319000     -0.147960    0.48256400   -0.34173500
Se   19.56750000   15.20355000    2.08077000      0.103140   -0.21109100    0.37643600
Se   14.00092000   15.96596000    8.27799000     -0.529044    0.13444100   -0.26807900
Se   17.47706000    0.49988000    0.31380000      0.239082   -1.17461800   -0.01402900
Se   16.76396000    0.69472000   10.71090000      0.269082   -0.02139600    0.55796400
Se    0.76177000    2.16752000    1.48392000      0.369717   -0.01635700   -0.04612700
Se   22.14059000    4.06110000   10.12811000      0.616763   -0.14995700   -0.20976900
Se   22.25898000    5.04845000    2.32820000      0.403053    0.06205200   -0.16268400
Se   21.66370000   12.28810000   12.24363000     -0.637942    0.19802000    0.22529800
Se   23.15978000   14.34377000    4.40017000     -0.349679    0.45341400    0.02595000
Se   21.30042000   15.93373000   11.65881000      0.593088   -0.53089600   -0.56957300
Se   23.10873000   21.70516000    2.44426000     -0.336730   -0.01964800   -0.22825700
Se   21.89912000    0.21780000   15.10552000     -0.069274   -0.44099500   -0.48775400
Se    3.98645000    3.59999000    9.39555000      0.126666   -0.30730300    0.22345600
Se    4.08271000    6.05769000   19.31102000      0.662319    0.03960400   -0.38213900
Se    4.22009000   11.94004000    8.62414000      0.523642    0.01187300    0.61817200
Se    4.18190000    6.93625000   14.54562000      0.755116    0.07227000    0.45745800
Se    7.09157000   18.92663000    6.25532000      0.202433    0.29919700   -0.03746500
Se   21.68601000   15.91483000   19.47109000      1.261347   -0.00789500   -0.55738800
Se    1.72018000   21.55605000   11.39295000     -0.752995    0.47610800   -0.26205300
Se    2.92950000   19.79423000   17.83306000     -0.694299   -0.13832800   -0.03384300
Se    7.43939000    3.32959000    7.93737000      1.574015   -1.01030300    1.19666600
Se    5.86987000    4.24551000    0.02938000     -0.358393    0.25519100    0.40938200
Se    6.02555000   10.16450000    5.90311000      0.456622    0.32615300   -0.21213800
Se    3.83020000    9.60590000   18.65434000      0.206163    0.02039900    0.38445200
Se    6.35198000   18.07951000    9.35650000      1.004142   -0.07680600    0.35779800
Se    6.03580000   15.36685000   18.13652000     -0.314130   -1.09186000   -1.23462700
Se    9.45451000   20.67481000    8.91775000     -0.675649   -0.18087100   -0.59458700
Se    8.50417000    2.61033000    0.07350000      0.346279    0.64698900   -0.26798000
Se   14.56167000    3.01569000    7.85944000      0.177785    0.98065900    1.50536600
Se    8.71172000    5.13216000   16.50466000     -0.734834   -0.18523900    0.10957200
Se   10.93064000    5.38634000    8.86731000     -0.014491   -0.40649500    0.01059300
Se   18.49393000   10.82418000   16.50861000      0.716408   -0.49490600   -0.19695600
Se   13.07313000   20.12579000    8.23916000     -2.602028   -1.19406700   -0.31967600
Se   15.91659000   16.02178000   16.37609000      0.759518   -0.12116000    1.15799200
Se   15.84921000   23.54922000    7.02892000      0.030382   -0.61488200    0.05180100
Se   19.09735000    3.61510000   16.71760000     -0.429486   -0.74136900   -0.00571000
Se   18.07547000    4.38661000   10.71239000     -0.634951   -0.31774000    0.32628800
Se   23.41630000    3.63310000   16.47749000      0.489475   -0.77690000    0.70589200
Se   19.65979000    8.87660000   12.56248000     -0.647181   -0.56579800   -0.15169400
Se   20.60020000    9.06630000   16.38958000     -0.492279    0.54372800    0.04786400
Se   15.58601000   18.96412000   10.95868000      0.180222   -0.04587800   -0.54266000
Se   19.29866000   14.49851000   16.90143000     -1.514833   -0.04301300    0.23907500
Se   18.32128000   22.96855000    7.34818000     -0.383555    0.56745000    0.29737100
Se   17.59196000   20.59951000    1.21747000     -0.325729    0.85943900   -0.44655900
Se    4.95254000   22.19390000    8.52103000     -0.111440   -0.50902400    0.28623400
Se    3.74290000    2.79534000    1.14207000     -0.501738    0.49097900   -0.25381400
Se    6.73935000    7.03590000    9.91316000      0.691303   -0.07614600   -0.09707100
Se    4.95594000    8.12058000    0.66444000     -0.797265   -0.27121000   -0.41893100
Se    4.79162000   16.12967000    5.90190000      0.197277   -0.36203400   -0.21951000
Se    7.26023000   12.01635000   16.89413000      0.326819    0.69639400    0.41604700
Se    3.01674000   18.87310000    9.12078000     -0.767915    0.05946200   -0.64481200
Se   21.73337000   19.65165000    1.34219000      0.169640    0.46504200    0.58139300
Se    8.75299000   23.28495000    7.26063000     -0.060206   -0.50110900    0.21813900
Se   12.64041000    4.01402000    2.80882000     -0.712997    0.96566300   -0.14500100
Se   10.55316000    1.93243000    9.35948000     -0.295729   -0.07137800   -0.49426400
Se    8.26538000    6.54859000    0.66738000      0.138879   -0.98322200   -1.07334600
Se   11.32901000   14.13767000    7.81320000     -0.971040   -0.61435700   -0.63534900
Se    9.29804000   13.34101000    0.78177000     -0.116958    0.00694000   -0.93991100
Se   13.40683000   23.04155000   10.17358000      0.266952   -0.08870400   -0.74253900
Se   15.30227000   12.32081000   16.66882000      0.250105   -0.08488100    0.53502200
Se   18.20558000    2.70395000    6.92342000     -0.797313    1.20886100    0.39391100
Se   15.84808000    3.60890000    2.05567000      0.651563    0.50009500   -0.12204700
Se   15.33855000    8.34708000    8.80742000      0.187766   -0.24549000    0.16531300
Se   15.19999000    8.09309000   16.89380000      0.241543    0.61224500   -0.21686200
Se   14.96082000   13.87650000    8.64617000      0.406910    0.08190200   -0.33758900
Se   16.81651000   12.72932000   19.49336000      0.695880    0.04259100    0.21849000
Se   13.61841000   19.99266000    3.06298000     -0.159384    0.00293700   -0.47454200
Se   19.40595000   21.81356000   17.69475000      0.143531   -0.05023200   -0.08531000
Se   22.48202000    0.88038000    7.74581000     -0.089170    0.32107600    0.36463000
Se    0.51727000    0.94597000   15.57977000      0.348910   -0.78010400   -0.09553300
Se   21.83642000    7.36565000    9.13169000     -0.417855   -0.00475800   -0.32654500
Se   23.31149000    7.79984000   16.95692000     -0.733033    0.08901000   -0.46184300
Se    0.36485000   10.78423000    7.56507000     -0.866503   -0.37032700   -0.00228000
Se   22.63658000    8.65449000   19.14310000      0.452866   -0.20304800   -0.12029700
Se   21.34496000   17.60957000    8.32191000      0.067116    0.30891600    0.07300500
Se   18.65302000   17.93900000   18.37070000      0.458459    0.44832700   -0.07327100
Se    1.21786000   22.95184000    9.27891000     -0.385933   -1.08593800    0.51455700
Se    2.38622000    0.76872000   12.66970000      0.410432    0.61263200   -0.31791500
Se    2.36274000    8.32137000    8.57459000      0.798816   -0.35844600   -0.30580100
Se    2.38800000    7.83250000   17.80954000     -0.280774   -0.20813200    0.38846200
Se    1.70298000   16.28768000    8.66965000     -0.008614   -0.14194200    0.37962300
Se    0.40729000   12.68915000   18.00314000      0.372916    0.50894100    0.47421100
Se    3.72447000   19.93072000    5.09593000      0.028409    0.42743300   -0.14984700
Se   22.92266000   19.72714000   17.34573000     -0.177520   -0.47994400    0.13470600
Se    7.00766000   23.14490000    4.28272000      0.542324    0.86402800   -0.66279000
Se    5.61540000    0.88928000   18.30353000      0.296984   -0.98766300    0.74967100
Se   11.04580000    6.50550000    5.24739000      0.863627   -0.13480400    0.28545200
Se    6.11683000    7.96602000   15.90759000     -0.281239    0.09612000   -0.40219100
Se    7.35624000   14.57709000    8.27055000      0.228302    0.28403000   -0.39150000
Se    8.19952000   18.69519000   13.67848000     -0.357854   -0.88412400    0.04852600
Se    7.75397000   16.46060000    2.85989000     -0.846493   -0.96499500   -0.64165400
Se    8.98644000   15.39581000   14.79704000      0.110424   -0.41075000    0.30370400
Se   15.02346000   21.27250000    4.62489000     -0.083756    0.24780100   -0.34038700
Se   13.68801000   22.79034000   15.70985000      0.651663   -0.23026200    0.73415800
Se   13.72923000    8.16907000    4.72259000     -0.325823    0.22327400    0.08239600
Se   10.06623000    7.80559000   13.52559000     -0.423873   -0.32918800   -0.07305200
Se   14.01506000   12.99856000    4.87440000     -0.000959    0.61188000   -0.72140100
Se   14.34656000   15.75945000   14.32444000     -1.226960   -1.76337800    0.19586400
Se   11.76089000   18.71167000    3.79214000      0.650054   -0.36463800    0.53522300
Se   16.82997000   20.72576000   17.22469000     -0.622985    0.02344100    0.40002300
Se   17.29202000    1.57391000    4.16107000      0.433077   -0.48254900    0.25300500
Se   19.75964000    1.98028000   18.28150000      0.061897   -0.26042200   -0.15198900
Se   20.24755000    7.25862000    4.20486000     -0.096216    0.74715900   -0.27922600
Se   20.07621000    5.62053000   17.21354000      0.218400    0.73520000   -0.16745500
Se   20.26634000   12.02060000    4.55369000      0.535463    0.21547100   -0.93267600
Se   16.57906000   12.22059000   12.69816000      0.125642   -0.27792600   -0.01677300
Se   19.20502000   17.99968000    3.94344000      0.857894   -0.42384000    0.20143200
Se   21.24513000   20.31276000   13.82332000     -0.074419    0.14284400   -0.21773000
Se    5.52069000    6.03888000    7.48954000      0.233522    0.08170800   -0.25368400
Se    2.93760000    3.80109000   17.15889000      0.730666   -0.13148700    0.16177000
Se    3.21657000   10.32531000    2.73762000      0.047080    0.20703800    0.25550200
Se    4.58694000   11.34733000   13.88505000      0.802684   -0.23864500    0.72061700
Se    3.98578000   13.86822000    5.33403000      0.462516    0.58010300    0.74522500
Se    1.83415000   16.84860000   18.75636000     -0.549696   -0.57166400   -0.17021000
Se    2.23204000    0.07120000    5.68081000     -0.798918    0.15925700   -0.46821800
Se    3.88575000   19.85218000   14.01095000     -0.755623    0.39778500   -0.62115300
Se   12.23637000    0.46503000    6.45202000     -0.260857   -0.20219800   -0.38302900
Se    7.09042000    3.37502000   15.98775000      0.182496    0.36777300    0.40917200
Se   10.65135000   11.76149000    7.48776000      0.830003    0.23630600   -0.27555200
Se   11.85768000   13.85898000   17.38525000     -0.453528    0.16840800   -0.63036500
Se   10.40260000   17.65556000   10.84900000     -0.338560   -0.49400000   -0.29972300
Se   11.90039000   19.69799000   19.45985000     -1.599653   -0.47549000    0.06532000
Se   10.19809000   21.51558000    3.76202000      0.611733    0.14247000    0.43772400
Se    7.81805000   20.94893000   18.54370000      0.375131    0.52584800    1.53571800
Se   15.20160000    5.23221000    6.11812000      0.152276   -0.73164400   -0.23690000
Se   14.12036000    6.06088000    0.75408000     -0.280268    0.99336600   -0.52105400
Se   16.04070000   10.93857000    7.03385000      0.484446    0.07943700    0.05575700
Se   17.62117000    6.92964000   14.20189000      1.043257    0.00876200   -0.53376300
Se   17.79570000   14.26611000    4.75791000     -0.785241   -0.08038500    0.58261400
Se   13.21286000   19.06248000   15.86252000      0.162393   -0.43770500   -0.01443000
Se   16.24766000   22.38826000    2.77278000     -0.917646    0.87712400    0.65969900
Se   17.49839000    3.62865000   13.03448000      0.964814   -0.01980100   -0.43674300
Se   21.64992000    4.77315000    6.15986000     -0.701514    0.01033700    1.11512400
Se   22.86176000    5.15550000   13.90374000     -0.224136    1.12389200   -0.72626900
Se   17.54717000   10.22420000   11.83635000      0.323037   -0.47226300   -0.69536400
Se   22.37514000   14.29667000   15.35254000     -1.922138    0.86857000   -0.33645800
Se   18.52537000   16.12850000    7.52071000     -1.525286    0.20815800   -0.26028200
Se   22.51000000   16.65592000   15.56182000      0.035801    0.38178200    0.75523100
Se   21.09052000   22.84962000    8.48130000     -0.232801    0.23318700    0.44865700
Se   22.61278000   23.08394000   18.86623000     -0.025685    0.60407800    0.04140300
Se    3.82599000    2.73520000    7.14005000      0.375934    0.26567600    0.05175400
Se    4.59601000    0.42178000   15.35037000     -0.457201   -1.03275800   -0.41383500
Se    4.34284000    5.57310000    3.93050000      0.143850   -0.31238000   -0.37052400
Se    4.85073000    9.30017000   11.28902000     -1.041057   -0.34330800    0.66910500
Se    1.63700000   12.03250000    3.51516000      0.526711   -0.61422600   -0.48982500
Se    3.70158000   14.26465000   16.02518000      0.118618   -0.89903000    0.43332700
Se    4.01205000   16.93553000    1.85254000      0.176955   -0.13079800   -0.36295000
Se    3.64378000   16.24004000   13.87453000      1.080291    1.11868400   -0.49733700
Se   11.14090000    1.09811000    1.69463000      0.813661   -0.17258200   -0.29134500
Se   11.16759000    1.73558000   14.93368000     -0.578520    0.28413300   -0.07381800
Se    9.80587000    8.90250000    3.10157000      1.186749    0.52541200    1.03457400
Se    9.56272000    8.94671000   16.86292000      0.608229   -0.11054000    0.06392700
Se    8.05630000   13.02929000    4.71339000      0.472460   -0.13201400    0.76259300
Se   12.30656000   11.23306000   12.35845000     -0.808134    0.72454700    0.25537500
Se    8.87207000   19.27267000    1.94018000     -0.502495   -0.23764000   -0.05887700
Se    8.36059000   22.43626000   14.85903000      0.356043    0.14368800    1.60245700
Se   19.06104000    4.70516000    8.15061000     -0.549929   -0.64833500    0.85329600
Se   14.80280000    0.47245000   17.39641000      0.044899    0.28423600   -0.44455700
Se   16.89992000    7.65583000    2.29183000      0.075140   -1.06423200    0.05804500
Se   13.48321000    7.54201000   13.59566000     -0.046497    0.16791800    0.71002400
Se   17.70454000   12.56045000    2.35291000      1.228533    1.84488100   -1.64558500
Se   19.38257000   17.60082000   13.73007000     -0.430455    0.27454200    0.10220200
Se   15.23672000   17.27664000    3.00401000     -0.181627   -1.15211500   -0.33251400
Se   17.16109000   20.37746000   14.22868000      0.280081   -0.27265500   -0.45685500
Se   22.26577000    2.02063000    4.58085000      0.649733   -0.20049600   -0.36724400
Se   22.55931000    0.67008000   12.14122000     -0.099076   -1.75415700   -1.77070000
Se    0.05128000    7.77173000    5.28151000     -0.539384   -1.11946500    0.30697000
Se   21.75935000    7.24010000   12.95989000      0.237444   -0.07840600   -0.22496700
Se    0.58044000   17.58325000    6.95548000      0.770336    1.02903900   -0.46487300
Se    0.53831000   11.57778000   14.29517000      0.468371   -0.32005400    0.02033900
Se   22.32240000   20.89313000    6.85807000     -0.231574   -0.87856300    0.32296300
Se   18.76104000   21.77570000   10.87133000      0.134212   -0.03058900   -0.97284600
Se    1.84831000    4.37691000    6.59972000      0.934131   -0.62530500    0.01890200
Se    1.93269000    4.33319000   11.63433000     -0.741697    0.18063400   -1.18858300
Se   22.50944000   10.98087000    3.99137000     -0.861984   -0.54698200    1.41655200
Se    1.73413000    7.99493000   13.27341000      0.889065   -0.12530000    0.62166100
Se    1.08887000   15.11353000    1.98738000     -1.231749    0.54796900    0.01184200
Se    1.42351000   16.40572000   14.41268000     -1.700393    0.51711700    0.18741400
Se    2.42169000   19.72424000    1.86266000     -0.256175    0.27726800   -0.59500100
Se    6.59616000   17.44031000   18.70872000      0.624950    2.07853000    0.16560900
Se   10.58622000    2.39194000    5.31345000      1.207027    0.21560300   -0.70209200
Se    8.12734000    2.39555000   13.10229000      0.195902    0.00290600    0.41071800
Se    5.99410000    8.62776000    3.28714000     -0.386449   -0.12872900    0.07155800
Se    8.31148000   10.94524000   13.50509000      0.087802   -0.67816700    0.25493000
Se    6.66156000   14.38276000    1.65427000      0.925813    0.62964600    1.14374200
Se   10.37625000   13.91810000   13.13294000     -0.588773    0.38198600   -0.48098400
Se    5.98893000   23.62684000   10.06231000     -0.080216    0.31775300   -0.11756000
Se    5.34991000   19.41166000   16.11097000      0.105568   -0.29241800    0.61639600
Se   13.50124000    0.50283000    2.64784000     -0.912230   -0.33330300   -0.82309500
Se   10.02017000    5.28660000   13.15932000     -0.146426    0.60715800    0.85718900
Se   13.76530000   10.88150000    1.58234000      0.121957   -0.46434900    0.19370000
Se   15.02022000   10.65655000   13.81553000     -0.258208    0.12510200   -0.33604800
Se   10.37938000   16.77959000    6.30051000     -0.257489   -0.04466600   -0.07010200
Se   13.74264000   18.95628000   12.58379000      0.201189   -0.58109700   -1.26933800
Se   14.59256000   21.37347000   19.87964000     -0.203721   -0.62758900   -0.00964900
Se   15.29297000   22.36002000   14.04516000     -0.059290    0.40567600   -0.47046200
Se   19.47066000    5.03085000    0.68355000      1.071287   -0.11401100   -0.97073600
Se   14.54204000    6.57580000   10.32171000     -1.122241    0.41171000   -0.94400600
Se   20.93345000    7.73451000    1.76470000      0.198110    0.19716500    1.00008300
Se    1.41817000   13.37196000   12.84723000      0.270367   -0.00232800   -0.43197200
Se   21.56609000   18.40673000    3.51649000      0.031391   -0.04871200    0.27120200
Se   17.84783000   15.81899000   13.47933000      1.088839    0.08242900   -0.29660200
Se   19.69079000   22.49669000    3.86765000      0.089052   -1.19640500    0.18166000
Se   18.99795000   23.51191000   14.26726000      0.694078    0.03256400   -1.05759400
