384
23.69824000 23.69824000 19.89960000
Ge    5.32652000    6.90100000   12.05884000     -0.325550   -0.35413800    0.54539100
Ge    6.61114000    4.28214000    3.71536000      0.801028   -0.41602200    0.06297200
Ge    1.75845000   12.89907000    7.32649000     -1.009583   -0.35924800    0.32216500
Ge    9.54645000   12.94447000   15.45909000      0.119537    0.05207700    0.45714600
Ge    4.99351000   15.66304000   10.12158000      0.210204   -0.25715500    0.00380900
Ge    9.45391000   18.78197000   19.35916000     -0.309673   -0.21150400    0.47950100
Ge    7.38990000   22.50180000   12.59303000      1.258262   -0.16958700   -0.62581400
Ge    4.99404000    0.28121000    1.13427000     -0.081018    0.31867300   -0.65682100
Ge    9.27887000    5.06157000   10.50026000     -0.737842    0.31273300    0.82328900
Ge   11.83851000    6.08453000   19.76453000     -0.169951    0.19652900    0.00849000
Ge    9.96268000    7.76187000   11.07186000     -0.323512    0.24405000   -0.67506200
Ge   13.47996000   11.97138000   18.79253000     -0.023817    0.02083500   -0.17651500
Ge   11.01689000   19.72376000   10.52389000      0.419659    1.05160100   -0.66721400
Ge   12.45355000   16.07259000   19.18671000      0.118257   -0.27758700    0.17307800
Ge   10.91116000   23.07253000    8.62193000      0.667382    0.94976700    1.34643500
Ge   16.13413000   22.78536000   18.70861000      0.084623   -1.52701300   -0.25844900
Ge   20.40862000    5.02046000   11.62183000      0.216915   -0.24328200    0.22630100
Ge   20.34998000    8.30402000   18.97084000     -0.254764   -0.00438800    0.87091100
Ge   19.86250000   10.95753000   10.66486000     -0.082523    0.52315300    0.11103100
Ge   19.11807000   12.45013000   18.85439000      1.699518   -0.16719100   -1.12578000
Ge   15.12018000   21.14581000    8.95512000     -0.364363   -1.02724000   -0.33351500
Ge   16.89112000   16.18873000   18.76452000      0.086444   -0.08126800   -0.50046100
Ge   19.94204000    0.63555000   11.83968000     -0.278243    0.32548900    0.18976900
Ge   20.16170000    3.89768000    2.88333000      0.412580    0.30561600    0.04843500
Ge   23.38246000    5.68658000    7.56267000      0.367390    0.51804600   -0.17886800
Ge    2.46644000    3.60770000    3.39172000      0.529581    0.61063800    0.44089700
Ge    1.58820000   10.33348000    9.77483000     -0.825875    0.52310200   -0.37774100
Ge    1.59667000    8.07696000    0.35202000      0.141284    0.84822000    0.61436300
Ge   20.57646000   15.30321000    8.51128000      0.543904    0.52193900    0.41814300
Ge    0.51779000   14.86332000   19.57395000     -1.202028   -0.64192400    0.37756700
Ge   18.68558000    1.15550000    9.13737000     -0.353829   -0.30513100    0.47164700
Ge    0.59494000   20.83821000   19.70501000      0.615930   -0.81766600    1.42818800
Ge    5.15832000    9.44182000    8.37325000     -0.426086   -0.22819800    0.65220400
Ge    1.96629000    4.31769000   19.83714000      0.010553   -0.07530000    0.01585300
Ge    2.17000000    8.63814000    6.16228000     -0.343101    0.82875000   -0.48354900
Ge    4.68462000   11.91450000   16.18796000      0.783217   -2.66839100    0.66053300
Ge    5.91276000   17.62787000    3.68082000     -0.276323    0.14048600    0.25671800
Ge   23.29620000   17.35427000   17.60068000      0.809676    0.05875100    2.21920700
Ge    4.93801000   20.25268000   10.00682000     -0.790430   -1.19023100   -0.98505900
Ge    4.69505000   21.67897000   17.85595000     -0.690041   -0.08066800   -0.05660400
Ge    9.19616000    1.70500000    7.46752000     -0.171290    0.50519600   -1.48977400
Ge    7.62471000    8.43879000   18.61406000     -0.117362   -1.08890700   -0.54432500
Ge    6.11495000   12.68019000    6.86830000      0.424958    0.21544500   -0.16816400
Ge    7.87494000    8.59972000    1.82177000      1.258424   -0.72466300    0.73304100
Ge    8.73771000   17.88845000    8.33273000      0.836149    0.24467600   -0.89644400
Ge    3.98209000   18.94355000    0.04584000     -0.419435    0.26871100    0.69313900
Ge   11.12218000   21.55823000    6.44023000      0.060971   -0.23012800   -0.68720700
Ge    9.61376000    3.42134000   18.06599000      0.203623   -0.45018800    0.31341700
Ge   13.02118000    6.66902000    6.41389000      1.268386    0.17228300    1.08931300
Ge   14.64117000    9.05970000    0.08233000     -0.570670   -0.15777200   -0.02961800
Ge   16.04810000   13.36929000    6.29508000     -0.616956    0.82280800    0.06412200
Ge   17.33657000   14.12162000   15.49704000     -0.798820   -0.99804100   -1.22035600
Ge   13.16167000   15.96829000    4.25718000      0.063526    1.17698800   -0.42488100
Ge   15.46325000   18.11784000   14.03074000      0.047703   -0.17583700    1.37121600
Ge   15.02681000    0.80846000    8.93718000     -0.249916    0.74265200    0.83732400
Ge   15.47885000    4.41472000   19.57132000     -0.690905   -0.08390900    0.07361700
Ge   19.69998000    6.77308000    6.89471000      0.654570   -0.46205700    0.06748000
Ge   22.26817000    5.58857000   16.09983000      1.079238   -0.38864900    0.03971900
Ge   20.46216000    9.16264000    8.16716000      0.067197   -0.13749600    0.02099500
Ge   21.58890000   13.73952000   17.79209000      0.077801    0.21031400    0.34236200
Ge   18.68971000   18.45390000    7.07410000      0.416819    1.53340000   -0.25026300
Ge   20.40179000   19.78325000   16.20786000     -0.153178    0.02770400    0.85842400
Ge   19.56481000    1.27573000    5.45453000     -0.987810   -0.37278500    0.13067000
Ge   19.48218000   22.53961000    0.74807000     -0.486807   -0.46287600   -0.11521600
Ge    4.73811000    1.80336000   11.42715000      0.324523    0.84707500   -0.09124700
Ge    5.18634000    3.32124000   17.98750000      1.145555   -1.17476800   -0.26538100
Ge    3.36219000    6.26528000    6.24601000      0.858154    0.69566000   -0.51309700
Ge    2.52250000   10.55129000   12.62680000     -0.511348   -0.88866100   -0.44339400
Ge    3.37296000   18.44181000    6.78723000     -0.104231   -0.94926800   -0.36480500
Ge    0.99472000   13.82099000   15.58764000     -0.477249    0.26095500    0.20233600
Ge   23.14793000   21.70398000   11.03897000     -2.373746   -0.47164800   -0.07215600
Ge    2.21057000   22.95457000   14.18160000      0.228400   -0.27386100    1.14167100
Ge    9.76743000    3.69658000    2.07627000     -0.175151    0.12513000    0.57118100
Ge    9.07734000    1.22859000   16.44409000      0.091058   -0.49754700    0.44464100
Ge    8.67428000   10.54786000    5.44758000     -0.490203    0.48820700    0.54771100
Ge    7.90478000   10.05367000   15.71134000     -0.367916    0.08315800    0.92235500
Ge    9.27566000   14.44694000    6.59435000     -1.377662    1.17994100    0.18345600
Ge   16.32520000   10.02405000   15.84502000     -0.630742    0.47768400    0.53564700
Ge    8.14211000   20.74350000    5.33783000      0.073279    1.33841200   -1.02444500
Ge    7.74320000   19.30425000   16.77796000      0.346993   -0.08633600   -0.19558100
Ge   14.33217000    2.62057000    5.49760000      0.195434    0.42778800    0.67263900
Ge   13.48455000    2.78558000   15.85249000     -0.018460    0.09918400    0.20947500
Ge   15.03128000   10.68740000    4.92859000      0.211508    0.02203500   -0.24639200
Ge   15.20257000    6.58227000   14.86922000      1.958564    0.86157100    0.32209900
Ge   15.90828000   14.67457000    2.79705000     -0.077375   -0.09337600    0.28643400
Ge   11.98745000   16.16825000   15.68977000      0.580396    0.30539500   -0.18547500
Ge   14.98372000   19.30820000   18.08129000     -1.095550    0.78194400   -2.49279300
Ge   10.25644000   21.43208000    0.37622000     -0.206094    0.69148100    0.81077700
Ge   23.62860000    4.11397000    4.35731000     -0.716579    0.84263100    0.35682500
Ge   22.62931000    2.50965000   14.08615000      0.370550    0.46255500    0.63586500
Ge   21.52903000    9.03065000    5.40690000      0.626125   -1.32556900    0.81411000
Ge   21.15285000   10.11572000   14.07836000     -1.290890    1.14752200    0.74257400
Ge   22.32390000   16.49116000    5.78961000     -0.656418    1.91943600    0.90037300
Ge   20.00247000   14.19465000   12.14016000     -0.940558    0.31945600    0.30860000
Ge   20.11800000   20.90249000    5.70702000      0.129915   -0.98943300    1.31749800
Ge   21.00089000    0.20176000   17.31070000     -0.527610    0.13288500   -0.72111400
Ge    5.85601000    3.98093000    6.13520000      0.757404   -0.80543900    1.00921800
Ge    2.66642000    3.28559000   13.72948000      0.176440    0.64287900   -0.03394300
Ge    5.65811000   11.12804000    2.82573000      0.608285    0.52584400    0.00799400
Ge    7.24831000    8.45986000   13.47888000      0.301506   -0.86396200   -1.07341400
Ge    4.77845000   14.86247000    0.22841000      2.358934    2.66997600    0.38729600
Ge    3.85262000   13.75988000   13.54286000     -0.896184    1.17837300   -0.23917000
Ge    5.33144000   22.23278000    5.60150000      0.626146    0.45441700   -0.25518400
Ge    5.71586000   22.16980000   14.73933000     -0.263668   -0.32482100   -0.04518200
Ge   14.92758000    6.25496000    3.37512000     -0.905395   -0.34164000    0.55172200
Ge   13.56749000    0.31648000   12.49409000     -0.642452   -0.72352100    0.04260000
Ge   11.34021000   10.64114000    1.02605000     -0.068728   -0.90163400    0.09847500
Ge   13.77936000    9.73903000   11.13840000     -0.182159    0.02249700    0.32374300
Ge   11.45675000   13.40894000    2.34389000      0.168973   -0.94776400   -0.77415700
Ge    7.82062000   17.43579000   11.39062000     -1.079814   -0.13076600    1.32938900
Ge   12.61002000   22.23348000    1.52684000     -0.114959   -0.83648200    0.06341200
Ge   11.44917000   23.04766000   13.98198000     -0.669453    0.77970000   -0.81486400
Ge    0.93515000    1.27783000   18.84684000     -0.193478   -0.83293000   -0.00262200
Ge   12.67597000    5.41110000   12.62327000      0.247840   -0.24553000   -0.83668500
Ge   17.20124000    5.09155000    1.29092000      1.267369    0.29884900   -0.38396000
Ge   12.59408000    7.00615000    9.07885000     -0.642021    0.79595400   -1.50796600
Ge   21.26224000   13.91476000    3.30430000     -0.453175   -1.47788800   -1.40535000
Ge   16.05944000   17.31468000    8.70819000     -0.115503    0.88812300   -0.30067200
Ge   18.06699000   20.18154000    3.85845000     -0.594339    0.04398200   -0.39296900
Ge   19.21198000   21.48901000   13.15012000     -1.575137   -0.57814800   -0.23332300
Ge    0.18492000    0.56538000    3.50974000      0.190430   -0.85736900   -0.05159800
Ge   23.36251000    1.98604000   10.09184000     -0.635047   -0.67862500   -0.69231100
Ge   23.53675000   10.92926000    1.74992000     -0.141232    0.17563600   -0.38226300
Ge   23.26103000    9.23802000   13.28080000      1.988400    0.36175500   -0.84025100
Ge    3.24246000   14.19223000    2.80412000     -0.644383   -0.15950900   -0.56632500
Ge    0.81541000   16.15117000   11.76845000     -0.077013    0.42264500    0.17697900
Ge   23.65910000   21.89183000    5.12312000     -0.611941    0.92187700    0.55827700
Ge   21.31152000   18.73664000   11.71433000     -0.903525   -1.10608100   -0.11721800
Se    2.04020000   22.72377000   19.48037000      1.085501    1.37281500   -0.26250200
Se    2.07468000    1.49689000    9.59275000     -0.120463    0.11410200   -0.63885300
Se    1.40750000    6.09383000    1.80880000      0.148554   -0.62674800    0.45923400
Se   22.92308000    9.83808000   10.89215000      0.721725    0.23683600   -0.15148600
Se   22.10621000   12.87932000    1.05217000      0.287223    0.11530400    1.18213500
Se   23.63498000   14.52190000    8.25966000      0.528603   -0.71239800   -0.09991100
Se    1.28864000   19.97866000    4.63030000      0.221049   -1.13018900   -0.38412700
Se   23.69746000   18.59835000   11.38095000      0.308832    0.04364300    0.10662900
Se    6.64510000    1.80430000    2.48144000      0.383870   -0.55499200    0.55846000
Se    5.02297000    3.86794000   13.05736000     -0.080490   -0.55042700    0.18230300
Se    9.06205000    5.07625000    4.49540000     -0.343710   -0.74785300   -0.05815500
Se    7.74936000    9.05481000   10.81238000      0.434830   -0.88035100   -0.53870800
Se    8.16207000   10.35134000    0.15181000     -0.158184    0.25663200    0.41676400
Se    6.34263000   15.42794000   12.18171000      0.765460    0.15734200   -0.33965500
Se    6.74075000   19.77985000    2.61240000      0.294599    0.00545100    0.23928600
Se    9.18438000   20.54009000   12.61226000     -0.390197    0.58001300    0.03745100
Se   11.74011000    1.24359000   19.15706000      0.391087    0.01715300   -1.58729700
Se   13.91512000    2.45558000   11.54223000     -0.112328    1.06823900    0.88366300
Se   12.00846000    8.51129000   19.24148000     -0.103440    0.66936100   -0.33603800
Se    8.24172000   11.67618000    8.27272000      0.108464   -0.69528800    0.20471200
Se   13.39557000   14.00296000    0.39203000      0.276229   -0.30774900    0.80263000
Se   11.80462000    9.39880000    9.50007000     -0.215677   -1.11261400    0.37495800
Se   14.78558000   17.74841000   19.74814000      0.138341   -1.69693800    0.49238300
Se   12.24512000   20.74621000   12.60759000     -0.104944   -0.16692000   -0.24127000
Se   17.28247000    3.80875000    4.32971000      0.278110   -0.42592300   -0.23784000
Se   14.48789000    3.82413000   13.73980000     -0.490438   -0.59543900   -0.79615700
Se   14.56129000    5.07090000   16.54807000     -0.287157   -0.98956500    0.51316000
Se   19.87200000    2.95083000   13.20067000      0.897872    0.18257000    0.33487600
Se   20.16900000    9.90617000    1.19584000     -0.315320    0.15183100   -0.56231300
Se   16.02920000   19.31906000    6.89885000      0.643875   -0.80604600    0.77767900
Se   19.24486000   18.79129000    0.44673000      0.062674    0.48518600    1.14854100
Se   19.59362000   19.68697000   10.02078000      0.644521   -0.69684200   -0.41789400
Se    3.64002000   23.02234000    3.94661000     -0.167369    0.47045400   -0.50596200
Se    2.84322000    6.44719000   11.49202000     -0.308549    0.33782000   -0.10691300
Se    5.79129000   11.29997000   19.73321000      0.153868    0.20732500    0.82320500
Se    4.81433000   12.76760000   10.83034000      0.952998    1.37670400    2.60557300
Se    3.69750000   12.96290000    0.08654000     -1.654804   -1.83132700   -0.05346800
Se    3.25402000   16.97018000   11.64251000      0.333039    0.04799600    0.70868300
Se    5.34257000   21.09897000    0.30553000      0.153725    0.19918000    0.06671100
Se    5.52679000   19.75816000   12.24849000      0.173820   -0.17192000    0.77846500
Se   11.15993000    5.85538000    2.26212000     -0.358808   -0.04920200   -0.47204600
Se    7.63449000    2.06555000   10.95320000     -0.336710    0.40557200    0.63420700
Se   10.56393000   12.19609000   18.66389000      0.098591    0.15800000    0.60992300
Se   10.39157000   12.16547000   11.30584000      0.623003   -0.59281200    0.09200100
Se   11.35809000   15.73294000    2.44975000      0.007518    1.28329400    0.15233300
Se   12.04876000   15.94227000   13.15913000     -1.650307    0.56221700   -1.07720800
Se   11.34576000   22.70516000   18.43959000      0.150132   -0.17710200   -0.95089000
Se    9.86636000   23.22170000   11.68639000      0.339815   -0.20537300    0.81425400
Se   12.07850000    4.01554000   18.39140000     -0.784090    0.46283800    0.18670400
Se   17.81665000    7.89530000    9.41038000      0.046831    0.43633300   -0.18420100
Se   16.67896000   10.39470000    2.62613000      0.310220    0.69429400    0.60836400
Se   18.56839000   13.21216000   10.61805000     -0.695450    0.05604500   -0.79004400
Se   19.55706000   14.91670000    2.18084000     -0.908532    0.82219600   -0.15874600
Se   13.99526000   16.01212000    8.35647000      0.140936    0.00288200    0.02370700
Se   17.35632000    0.35933000    0.41387000      0.049376    0.53795800   -0.01852900
Se   16.53963000    0.56184000   10.87609000      1.179338    0.08512800   -1.26006600
Se    0.99626000    2.25329000    1.92064000     -0.343849   -0.44520000   -1.48055600
Se   22.32492000    4.25774000   10.15089000      0.179699   -0.26031000   -0.06558400
Se   22.46457000    5.10419000    2.47728000     -0.561792    0.20927500   -0.58299000
Se   21.56623000   12.45414000   12.21685000      0.199519   -1.44754800    0.36966600
Se   23.01397000   14.68545000    4.53616000      1.714219   -1.00111200    0.04171600
Se   21.49761000   15.77852000   11.36604000      0.249961    0.97451400   -0.58919800
Se   23.20909000   21.70189000    2.45263000     -0.627435   -0.03269000   -0.37557300
Se   21.98739000    0.12196000   15.03611000     -0.222484   -0.06070500    0.42390200
Se    3.92771000    3.66338000    9.35641000     -0.334219   -0.95605300    0.12870600
Se    4.25875000    6.10227000   19.27387000     -1.059917    0.60377100   -0.58387300
Se    4.21641000   12.05172000    8.88871000     -0.885132   -1.20323000   -3.05745400
Se    4.22683000    7.01216000   14.60952000      1.199715    0.11656800    0.11420300
Se    7.25032000   18.75183000    6.25657000     -0.175867   -0.60245000   -0.05063300
Se   21.90681000   16.09285000   19.16410000      0.405032   -0.76468800   -0.15530400
Se    1.72234000   21.50491000   11.53498000      1.952843   -0.59347200    1.29596400
Se    2.90256000   19.70327000   17.85430000     -0.393085    0.21035300    0.08066900
Se    7.69861000    3.38802000    8.03244000     -1.008013    0.38011700   -0.39322400
Se    5.57129000    4.44627000    0.36778000      1.329645   -0.74748600    0.54606100
Se    5.92020000   10.34922000    5.71047000      0.057583    0.10348100    0.20913300
Se    3.90046000    9.50493000   18.52383000      0.227803   -0.11089100    0.14961300
Se    6.41691000   18.11189000    9.30669000     -0.448190    0.30433400    0.89426500
Se    5.85323000   15.42942000   17.94703000      0.030826    1.04487600    0.42862300
Se    9.46449000   20.48951000    8.68651000     -0.224398   -1.02879100    0.17053600
Se    8.21462000    2.50140000   19.78401000      0.380900    0.57587700    0.41774900
Se   14.58811000    3.09698000    7.96061000      0.006211   -0.51311200    0.03166500
Se    8.48491000    4.87270000   16.44771000      0.657743    0.87751700    0.16155600
Se   10.99375000    5.27678000    8.90070000      0.758469   -0.42396400   -0.62189200
Se   18.66055000   10.61667000   16.36667000     -0.015323    0.55871200    0.02264700
Se   12.85570000   19.99788000    8.22527000      0.432421    0.13382100    0.59272900
Se   16.17336000   15.98472000   16.29655000     -0.868782    1.36735700    1.22747200
Se   15.73238000   23.35579000    6.93055000     -0.777944   -0.31712600   -0.40133100
Se   19.04797000    3.51886000   16.69931000     -0.044422    1.07142000   -0.28294000
Se   18.09204000    4.29620000   10.82803000     -0.696471    0.30596600   -1.22615900
Se   23.55353000    3.63609000   16.60206000     -0.758323    0.05909500   -0.14805900
Se   19.78125000    8.70140000   12.54228000     -1.701929    0.41685700    0.09769400
Se   20.41692000    8.97985000   16.40484000      0.238874    0.12151000   -0.46031900
Se   15.76503000   19.00424000   10.62205000     -0.063954   -0.21127600    0.35585500
Se   19.19756000   14.44384000   16.80250000      0.508925   -0.17420900    1.40692000
Se   18.01976000   23.09423000    7.34492000      1.173297    0.03484700    0.08360300
Se   17.51923000   20.89418000    1.24738000      1.008785   -0.93375700    0.67988700
Se    5.00220000   22.09967000    8.49470000     -0.378056   -0.08918800   -0.46062300
Se    3.77129000    2.84814000    1.26177000     -0.448111    0.28374300   -0.42978600
Se    6.85671000    6.99255000    9.74028000      0.357233    0.76942800    0.43918400
Se    4.78777000    8.19715000    0.66071000     -0.291538    0.05030200   -0.47158300
Se    4.73019000   16.09001000    5.56582000      0.424859    1.53292500    0.47164800
Se    7.29155000   12.02164000   16.85500000     -0.452164    0.63095300    0.10056700
Se    2.95069000   18.79869000    9.17542000      0.349785    0.59329200    0.14240200
Se   21.64969000   19.80601000    1.48184000      0.220784    0.11450400    0.53688400
Se    8.78425000   23.02341000    7.50846000     -1.677927    0.30240900   -0.71490600
Se   12.79713000    4.25421000    2.92180000     -0.135305   -0.16695300    0.09727600
Se   10.54128000    1.97987000    9.27812000      0.965618   -0.56241600    0.90100000
Se    8.23535000    6.54760000    0.58000000     -0.123670    0.36303800   -0.59575000
Se   11.30838000   13.96258000    7.65447000      0.465134    0.80212800    0.18078400
Se    9.30267000   13.26960000    0.63160000      0.693174    0.44985200   -0.57947600
Se   13.29290000   23.11043000   10.10995000      0.293517   -0.03684400    0.49702700
Se   15.38443000   12.25258000   16.88936000      0.867630   -0.33267600   -0.05677100
Se   18.09841000    2.99377000    7.01216000     -0.084293   -0.59714700   -0.54768100
Se   15.54876000    3.34453000    2.32576000     -0.009074    0.64258900   -0.43916400
Se   15.59028000    8.51771000    8.70682000      0.906179    0.18540800   -0.18388600
Se   15.16137000    8.22334000   16.80444000     -0.033400    0.00569700    0.49633600
Se   14.93818000   13.85484000    8.58339000      0.355546    0.48823600   -0.77891100
Se   16.98926000   12.50726000   19.43552000     -2.197760    0.19784600    1.03006500
Se   13.56147000   20.04241000    2.88149000     -0.103401   -0.43593100    0.63742000
Se   19.33306000   22.17562000   17.48044000      0.453055   -0.56820400    0.00632200
Se   22.57884000    0.85264000    7.61525000     -0.250105    0.29721500    1.12342700
Se    0.59192000    0.95587000   15.53128000      0.213237   -0.80177000   -0.08030500
Se   21.87571000    7.26415000    8.90403000     -1.069605    0.89504600    0.19421900
Se   23.25639000    7.71688000   16.81441000     -0.374037    0.45410900   -0.06916700
Se    0.21321000   10.81755000    7.43495000      0.829298    0.40957700    0.44092600
Se   22.94739000    8.52954000   19.19750000     -0.582946   -0.10651300   -0.71814100
Se   21.47464000   17.67679000    8.42471000     -0.122482   -0.37279700   -0.48529500
Se   18.73749000   18.07825000   18.27762000     -0.299518   -0.63974600   -1.17850100
Se    1.18563000   22.52042000    9.54999000      0.453487    1.07082300   -1.75162500
Se    2.31782000    1.04510000   12.59773000      0.408846    0.58825500   -0.61591900
Se    2.61774000    8.34560000    8.66739000      0.601968   -0.58802300   -0.21787300
Se    2.19485000    7.70757000   17.91765000      0.969765    0.02719500   -0.53177100
Se    1.68869000   16.08640000    8.67873000     -0.657555    0.08001800   -0.10716500
Se    0.26685000   12.78614000   18.28369000      0.718041    0.31681100    0.13137400
Se    3.72939000   20.12591000    4.93758000      0.109071   -0.33328900    0.64807800
Se   22.95487000   19.67516000   17.81076000     -0.880924    0.28222400   -1.08982300
Se    7.10964000   23.24567000    4.11990000     -0.291377   -0.08639900    0.03520100
Se    5.56629000    0.89062000   18.33311000     -0.011702   -0.27285500    1.10985100
Se   10.99872000    6.66936000    5.26026000     -0.782530    0.07421200   -0.37345000
Se    6.20091000    8.07122000   15.99662000     -0.464000   -0.23715900   -0.65206600
Se    7.36613000   14.65851000    8.42930000      0.434234    0.17102400   -0.72323400
Se    7.95501000   18.84259000   13.79061000      0.068766   -0.80248100   -0.79077500
Se    7.61599000   16.25339000    2.63671000      1.618880    1.00838900    0.36662100
Se    8.73499000   15.08632000   14.64939000     -0.087919   -0.27470600    0.39354100
Se   15.31398000   21.15927000    4.55119000     -0.180337   -0.09720200   -0.90892000
Se   13.83816000   22.72736000   15.89046000      0.001888   -0.81583100   -0.78549500
Se   13.57877000    8.49664000    4.75197000      0.133151   -0.21602600   -0.17052000
Se   10.24101000    8.05478000   13.42242000     -0.529835   -0.69972500    0.57018900
Se   13.90024000   13.09752000    4.86902000      0.943924    0.07825800   -0.16444300
Se   14.03268000   15.61816000   14.11107000      1.629490   -0.37817700    1.44546300
Se   11.92764000   18.59273000    3.89133000      0.706241    0.27467800    0.14998500
Se   16.78205000   20.67136000   17.20750000      0.178903    0.64883800    0.18689000
Se   17.15997000    1.34518000    4.03100000      0.956306    0.34135400    0.55334400
Se   19.76136000    2.04727000   18.25456000      0.045581    0.05166200    0.56053900
Se   20.35737000    7.30788000    4.15207000     -0.470690    0.23120600   -0.55296000
Se   20.18032000    5.79630000   17.06253000     -1.148505   -0.71506900   -0.08701600
Se   20.30323000   11.97666000    4.50945000     -0.827058    0.91318400    0.03550700
Se   16.65194000   11.94721000   13.01688000      0.028893   -0.64259400   -0.61404200
Se   19.36661000   17.91816000    3.80982000      0.573901   -0.00870000    0.30759100
Se   21.27016000   20.36211000   13.71380000      0.283306    0.24805800    0.13582900
Se    5.55579000    5.98331000    7.44145000     -0.498495    0.20509600   -0.39065600
Se    3.05995000    3.64559000   17.28716000     -0.875007    0.47475700   -0.36281000
Se    3.38322000   10.42582000    2.60766000     -1.175817   -0.96526700    0.10030900
Se    4.56156000   11.52511000   13.68409000      1.303332   -0.93168900    0.42931400
Se    3.93063000   13.97914000    5.45363000     -0.257126   -0.95393300    0.06267800
Se    1.74014000   16.57138000   18.63173000      0.482604    1.07102000   -1.29688300
Se    2.08461000    0.13068000    5.49527000     -0.442128    0.09668700   -0.01593900
Se    3.88895000   19.72406000   14.01089000      0.088184    0.22114700   -0.17338000
Se   12.08416000    0.38763000    6.37851000      0.013480    0.34350700   -0.50598400
Se    7.22012000    3.04817000   15.95693000     -1.398214   -0.11917700   -0.25107300
Se   10.54433000   11.80625000    7.60850000     -0.241127   -1.96421700   -0.22838900
Se   12.14793000   13.73085000   17.17155000     -0.498374    0.29289900   -0.10973900
Se   10.21523000   17.55248000   10.97581000      0.215739   -1.41491300   -0.30128700
Se   11.81567000   19.56038000    0.00905000     -0.447937   -0.50848200   -0.37928600
Se   10.18038000   21.60272000    3.82829000     -0.075664   -0.57993300    0.72920900
Se    7.92110000   20.98058000   18.68699000      0.227743   -0.56189800    0.10884200
Se   15.12749000    5.16021000    6.14329000     -0.966653    0.45449000   -0.47562200
Se   14.08114000    6.40138000    0.58825000      1.367507   -0.15302400   -0.04589500
Se   16.01858000   11.21556000    7.27298000      0.316547   -1.03166400   -0.63722500
Se   17.50820000    6.84570000   14.28171000     -0.699449   -0.29370000   -0.15489400
Se   17.90066000   14.35398000    4.78392000     -0.860884   -0.21530000    0.18352800
Se   13.29593000   19.17264000   16.03345000      1.076897   -0.64995900    0.18401400
Se   16.11609000   22.60018000    2.72197000     -0.304668    0.05106700    0.31026600
Se   17.54353000    3.73510000   12.96891000      0.189802   -0.15658700    1.12726500
Se   21.55403000    4.73959000    6.40021000      0.027343   -0.44282000   -0.83241300
Se   23.05341000    5.35121000   13.81220000     -0.470320    0.31081100    0.17244000
Se   17.59474000   10.00766000   11.68345000     -0.143235    0.53051800   -0.02747200
Se   22.02817000   14.41987000   15.33678000      0.551556    0.10201400   -0.08400100
Se   18.42418000   16.18128000    7.49824000     -1.247002   -1.47836500    0.35230700
Se   22.70014000   16.85048000   15.47343000     -1.473396   -0.04413500   -1.57326300
Se   21.04876000   22.98749000    8.52541000     -0.002389    0.18348000   -0.29649800
Se   22.59964000   23.26816000   18.77211000      1.068930    0.09768200    1.08704700
Se    3.98331000    2.61380000    7.16711000      0.479168   -0.12787000   -0.29500400
Se    4.34400000    0.26367000   15.43980000     -0.441996    0.10548700   -0.16156500
Se    4.52771000    5.45012000    3.84240000     -0.819515    0.86953500    0.01887600
Se    4.66618000    9.21550000   11.46295000     -0.204638    0.30909300   -0.22794700
Se    1.76545000   11.99107000    3.32991000     -0.085928    0.43577000    0.07864400
Se    3.67446000   13.91690000   16.30263000     -0.630557    2.13667400   -0.09900800
Se    4.23696000   16.88143000    2.00582000     -0.822480   -0.37400800   -0.79685300
Se    3.75208000   16.18189000   14.04942000      0.241170    1.03053800   -0.64021100
Se   11.40922000    1.30114000    1.46776000     -1.316852    0.14369900    1.32390600
Se   11.00719000    1.87248000   15.09687000      0.309828   -0.08982100   -0.66971900
Se    9.87922000    8.59483000    3.24008000     -0.513831    1.18228800   -0.51391000
Se    9.60475000    8.95941000   16.85519000      0.348772   -0.35264000    0.31178500
Se    7.92354000   13.10546000    4.85163000      0.570289   -0.13943800    0.35976700
Se   12.42090000   11.37744000   12.54435000     -0.271385   -0.14666500   -0.55448100
Se    8.91894000   19.03590000    2.21161000      0.461550    0.19904300   -0.61502400
Se    8.11614000   22.63309000   15.06668000      0.559301    0.59696800    1.06571800
Se   18.93691000    4.75465000    8.24829000      0.198266    0.79692400    0.08270600
Se   14.76863000    0.52481000   17.36308000      0.236178    1.24009400   -0.15861900
Se   16.82256000    7.30926000    2.18378000      0.857922    0.30685200    0.14838800
Se   13.42673000    7.48677000   13.74310000     -0.986166    0.50886800   -0.34649900
Se   18.05888000   12.50765000    2.37209000     -1.031898   -0.59104600   -0.73530600
Se   19.33499000   17.62266000   13.81931000     -0.740898   -0.38861500   -0.57671000
Se   15.15091000   17.04177000    2.72076000     -0.090650   -1.01237300    0.74138600
Se   17.19698000   20.28005000   14.10233000      0.503809    0.01943300   -0.03034300
Se   22.20562000    2.13554000    4.29857000     -0.558817   -0.78265200    0.41414500
Se   22.56443000    0.29983000   12.11423000      0.070589    0.79428700   -0.72892600
Se    0.07609000    7.69721000    5.02302000     -0.133212    0.07040800    0.94991300
Se   21.74820000    7.43258000   12.87416000      0.696789   -2.39789500   -0.14443200
Se    0.83326000   17.69392000    6.85137000      0.513420    0.27454900    0.23020100
Se    0.64351000   11.55753000   14.40650000      0.462040   -0.06974900   -0.23366000
Se   22.23928000   20.85954000    7.15781000      0.116859    0.11157100   -0.49618400
Se   18.39785000   21.65667000   10.63240000      0.434320    0.60293000    0.91743900
Se    1.81714000    4.49141000    6.38415000      0.066426   -1.22536100    0.51893200
Se    1.99887000    4.28444000   11.31876000      0.026381    0.07887500    0.65184100
Se   22.23726000   10.82398000    4.00415000      1.319914    0.05904900    0.00961100
Se    1.67838000    8.09289000   13.52276000      0.058180    0.65835500    0.30429200
Se    0.97871000   15.43494000    1.92910000      0.367522   -0.38230200    0.31935900
Se    1.36285000   16.64457000   14.71383000      0.561121   -0.07346400   -0.52992900
Se    2.23848000   19.80766000    1.81570000      0.130551    0.01826900   -1.35273600
Se    6.58986000   17.79605000   18.58136000     -0.248249   -0.45737000   -0.05349600
Se   10.61662000    2.22893000    5.44665000      0.232623   -0.52387800    0.46645000
Se    8.22222000    2.52460000   13.17422000      0.329654   -0.00671900   -0.45440900
Se    6.00843000    8.64155000    3.32624000     -0.152135    0.01516400   -0.48391900
Se    8.04467000   10.78519000   13.49238000      0.336803    0.21848600   -0.26947200
Se    6.78680000   14.34449000    1.87514000     -1.028436   -1.73258100   -0.59587400
Se   10.31685000   13.83499000   13.07293000     -0.070865    0.62208500   -0.46652900
Se    6.01066000   23.50161000   10.09866000      0.155821    0.75764600    0.27816700
Se    5.28808000   19.26724000   16.06415000     -0.201189   -0.13879500    0.50115000
Se   13.39012000    0.60056000    2.53288000      0.956225    0.19018900    0.30983300
Se   10.22764000    5.16130000   13.24498000     -0.278320    0.67901800    0.04031100
Se   13.73484000   10.68324000    1.93577000     -0.139128   -0.25735600   -0.55683000
Se   14.90953000   10.47567000   13.84519000      0.790681    0.29668500   -0.01263500
Se   10.30379000   16.65054000    6.49946000     -0.076661    0.13916000   -0.33547800
Se   13.89005000   18.95025000   12.37644000     -0.243489    0.01463000   -1.34196300
Se   14.61830000   21.04499000   19.70149000     -0.617514    1.30155900    0.79052500
Se   15.14800000   22.48762000   13.77056000      0.172347    0.28370200    0.47552600
Se   19.71378000    4.88068000    0.71289000     -1.077041   -0.27936300    0.43014800
Se   14.68800000    6.75397000   10.01893000      0.452858   -0.66364700    0.96081200
Se   21.29079000    7.92613000    1.72552000      0.217415   -0.35028900    0.75825400
Se    1.40286000   13.69009000   12.84835000     -0.179023   -0.76114600    0.07202000
Se   21.75016000   18.33465000    3.70255000     -0.638603    0.37896600    0.04949400
Se   17.73748000   15.81508000   13.19135000      1.726676    0.62959700    0.43111600
Se   19.61146000   22.23390000    3.87166000      0.446839    0.85740300   -0.98647700
Se   19.07277000   23.58342000   14.28039000      0.413548    0.17336700   -0.70200300
