384
23.69824000 23.69824000 19.89960000
Ge    5.37429000    6.97151000   12.05320000     -0.597158   -0.89357300    0.54821300
Ge    6.60406000    4.29081000    3.72215000      1.087023   -0.63198100    0.20037900
Ge    1.75002000   12.92504000    7.32111000     -0.854127   -0.44608200    0.23273600
Ge    9.52547000   12.90740000   15.44918000      0.183978   -0.08198400    0.47640500
Ge    4.98884000   15.67637000   10.15064000     -0.008554   -0.27842700   -0.37589000
Ge    9.44414000   18.82220000   19.41181000     -0.545414   -0.48369600    0.28269400
Ge    7.40794000   22.43500000   12.57217000      1.088317    0.00259000   -0.42334800
Ge    4.97259000    0.30939000    1.13471000     -0.060446    0.25624500   -0.65933500
Ge    9.25507000    5.07332000   10.50081000     -0.406489    0.26196300    0.60790200
Ge   11.83860000    6.08052000   19.74705000      0.000685    0.28728600    0.96180800
Ge    9.97980000    7.74487000   11.04695000     -0.384082    0.39366500   -0.36015600
Ge   13.50697000   12.01763000   18.78498000     -0.202818    0.02820400   -0.16610900
Ge   11.02423000   19.76430000   10.52049000      0.090715    0.13617500   -0.58615500
Ge   12.44887000   16.09569000   19.18652000      0.124725   -0.33231900    0.18108800
Ge   10.93119000   23.10620000    8.63903000      0.382825    0.80284100    1.16313300
Ge   16.10317000   22.77164000   18.69372000     -0.074069   -1.44581900   -0.17619200
Ge   20.42404000    5.00629000   11.64543000      0.139102   -0.31400400   -0.06665200
Ge   20.37993000    8.32187000   19.03857000     -0.077556   -0.10778700    0.64861900
Ge   19.82135000   10.93997000   10.64842000      0.072790    0.67515300    0.02910600
Ge   19.13360000   12.43449000   18.81027000      1.116025   -0.08842700   -0.97581500
Ge   15.14444000   21.17107000    8.98640000     -0.600245   -1.12957400   -0.54713300
Ge   16.83202000   16.18806000   18.69759000      0.456799   -0.19336600    0.16212300
Ge   19.92698000    0.61883000   11.85461000     -0.098626    0.20287000   -0.13664000
Ge   20.16640000    3.89791000    2.98044000      0.301799    0.59125800   -0.51884400
Ge   23.35822000    5.68212000    7.56335000      0.555945    0.43770200   -0.18236000
Ge    2.54082000    3.58093000    3.42655000      0.432772    0.53447800    0.58941400
Ge    1.56436000   10.35178000    9.74881000     -0.718726    0.42537000   -0.48958600
Ge    1.62431000    8.06427000    0.36876000      0.014232    1.18923600    0.46298500
Ge   20.61561000   15.34038000    8.55303000      0.309669    0.36050000    0.40826400
Ge    0.48145000   14.88980000   19.56646000     -0.821930   -0.51191800    1.06036800
Ge   18.68877000    1.12719000    9.12572000     -0.396452   -0.08638200    0.50238000
Ge    0.63994000   20.87937000   19.70493000      0.198863   -1.49734800    1.29456700
Ge    5.10032000    9.46595000    8.39809000     -0.185071   -0.16929200    0.66265600
Ge    1.96790000    4.29830000   19.83674000     -0.014033    0.00871000   -0.01639700
Ge    2.19140000    8.62408000    6.19028000     -0.624759    0.99884600   -0.75208600
Ge    4.63027000   11.92935000   16.15038000      1.497791   -3.72861400    0.66169000
Ge    5.94273000   17.62490000    3.66495000     -0.319730    0.02581500    0.23341600
Ge   23.30733000   17.29536000   17.53354000      1.145058    1.33953400    2.60901700
Ge    4.92040000   20.25541000    9.99633000     -0.737008   -1.23742100   -0.62939200
Ge    4.71225000   21.65655000   17.94112000     -0.685136   -0.09394900   -0.36529600
Ge    9.16110000    1.70977000    7.51026000      0.083110   -0.38908300   -1.67954600
Ge    7.62696000    8.44699000   18.69272000     -0.270475   -1.28702800   -1.14905000
Ge    6.11622000   12.66447000    6.85989000      0.254910    0.31718900   -0.18029500
Ge    7.91925000    8.61573000    1.82243000      0.897089   -0.76313900    0.83454900
Ge    8.70872000   17.85136000    8.32134000      1.022767    0.16470300   -0.70341000
Ge    3.95297000   18.89155000    0.07923000     -0.623367    0.23961600    0.43250600
Ge   11.08736000   21.59625000    6.40237000     -0.068573   -0.20312800   -0.67279900
Ge    9.59116000    3.34551000   18.11116000      0.368670    0.01168000   -0.29542600
Ge   12.98267000    6.70971000    6.38692000      1.721164   -0.09404400    1.28147200
Ge   14.70784000    9.06219000    0.10200000     -0.541028    0.08569900    0.00263800
Ge   16.06335000   13.44048000    6.27009000     -0.772014   -0.00789300    0.36801100
Ge   17.35743000   14.15911000   15.46046000     -0.972439   -1.01008100   -1.40897800
Ge   13.18206000   15.96264000    4.24954000     -0.143835    1.01353000   -0.40642300
Ge   15.54695000   18.13720000   14.02349000     -0.555436   -0.21250900    0.84116900
Ge   15.00037000    0.78779000    8.90969000     -0.019451    0.84095400    0.86405600
Ge   15.42269000    4.34077000   19.64045000     -0.472044   -0.01465700    0.16013900
Ge   19.69393000    6.80424000    6.83953000      0.543825   -0.75345500    0.28188700
Ge   22.28166000    5.61068000   16.14575000      1.309279   -0.79401900   -0.49959400
Ge   20.46510000    9.14384000    8.14955000     -0.025486    0.10189700   -0.08728200
Ge   21.63300000   13.74087000   17.82272000     -0.282040    0.23605900   -0.11580500
Ge   18.71423000   18.46117000    7.04134000      0.250557    0.90204600   -0.08723200
Ge   20.38041000   19.79440000   16.20443000     -0.049069    0.15367500    0.89752900
Ge   19.52528000    1.27980000    5.40440000     -0.885711   -0.31753100    0.24868100
Ge   19.40865000   22.56113000    0.77959000      0.071473   -0.36933000   -0.22237900
Ge    4.70376000    1.77087000   11.39184000      0.374761    0.95354900    0.01702200
Ge    5.22842000    3.31807000   17.98854000      1.248617   -0.97012400   -0.08257200
Ge    3.33328000    6.29421000    6.23933000      0.823521    0.22209800   -0.35049400
Ge    2.47686000   10.50778000   12.59506000     -0.159985   -0.57652400   -0.05178500
Ge    3.36261000   18.45379000    6.80971000      0.253845   -0.72353200   -0.51625200
Ge    1.02892000   13.85974000   15.62911000     -0.620255    0.12462300   -0.01278300
Ge   23.19834000   21.64606000   11.04884000     -2.686594   -0.58179200    0.12027200
Ge    2.23168000   23.00837000   14.17832000     -0.013538   -0.32381100    0.57936000
Ge    9.77067000    3.71678000    2.03724000     -0.307367    0.16129000    0.52610600
Ge    9.03435000    1.17156000   16.44762000      0.303579   -0.42320100    0.32833300
Ge    8.61881000   10.59615000    5.48156000     -0.342206    0.34245100    0.58133600
Ge    7.90971000   10.04626000   15.74362000     -0.314539    0.37738300    0.61639500
Ge    9.23395000   14.46200000    6.61001000     -1.072726    0.95384500    0.35205400
Ge   16.32502000   10.01430000   15.86075000     -0.438558    0.76822000    0.24152100
Ge    8.11445000   20.69259000    5.36138000      0.077379    1.59960000   -1.01456100
Ge    7.76416000   19.22895000   16.76566000      0.307793    0.15824300   -0.12337100
Ge   14.32478000    2.66752000    5.47598000      0.183414    0.40963800    0.92070700
Ge   13.50077000    2.73872000   15.85336000     -0.002988    0.41872500    0.03720600
Ge   15.04046000   10.66954000    4.92146000      0.313940    0.32083300   -0.12463700
Ge   15.19781000    6.59863000   14.89914000      1.513535    0.70969200    0.15078500
Ge   15.88990000   14.74906000    2.79964000      0.246343   -1.28262200    0.15457600
Ge   11.99469000   16.18181000   15.71616000      0.725399    0.12139200   -0.38581700
Ge   15.02167000   19.26343000   18.03012000     -1.360823    1.27516800   -2.41546700
Ge   10.25330000   21.45094000    0.35369000     -0.115014    0.77815200    0.79162100
Ge   23.65077000    4.07657000    4.33298000     -0.569074    0.84513000    0.41599000
Ge   22.58986000    2.55445000   14.17628000      0.479495    0.27681900    0.63642800
Ge   21.55099000    9.00704000    5.39518000      0.594495   -1.55866000    1.27142800
Ge   21.14211000   10.16809000   14.14273000     -1.200191    0.68783600    0.13264600
Ge   22.30346000   16.59849000    5.82295000     -0.291742    1.35113900    0.67953000
Ge   20.02537000   14.20908000   12.10074000     -1.077340    0.21034000   -0.00014400
Ge   20.14085000   20.91103000    5.70512000      0.205709   -1.08367200    1.51320800
Ge   21.02033000    0.27180000   17.30902000     -0.362075   -0.45861100   -0.68226700
Ge    5.80189000    3.92342000    6.15163000      1.176899   -0.38046900    0.81342800
Ge    2.64220000    3.28758000   13.78759000      0.451386    0.76543400   -0.38902100
Ge    5.63902000   11.15044000    2.82724000      0.870230    0.42575500    0.15213900
Ge    7.27730000    8.37127000   13.46809000      0.686100   -0.34110200   -0.75373800
Ge    4.85182000   14.88779000    0.25224000      1.858242    1.40925500    0.15014500
Ge    3.77680000   13.72872000   13.56141000     -0.596773    1.44127400   -0.10022700
Ge    5.37366000   22.18831000    5.58911000      0.516275    0.60969500   -0.36663100
Ge    5.69728000   22.22580000   14.75175000      0.148871   -0.76631300   -0.21122800
Ge   14.85807000    6.27698000    3.38791000     -0.662907   -0.14800700    0.36334800
Ge   13.56734000    0.30284000   12.54332000     -0.831070   -0.13289700   -0.41769200
Ge   11.34077000   10.62400000    1.02375000      0.028905   -0.88469600    0.18990000
Ge   13.78606000    9.76904000   11.08848000     -0.303028    0.08016100    0.58995400
Ge   11.48215000   13.43092000    2.36163000      0.093959   -0.42892900   -0.87296900
Ge    7.76467000   17.42958000   11.42172000     -0.529000   -0.09574700    1.27933800
Ge   12.60962000   22.21819000    1.57211000     -0.262107   -0.79432700   -0.17419500
Ge   11.47508000   23.05889000   13.98890000     -0.740956    0.87701900   -0.72609600
Ge    0.88681000    1.24848000   18.82058000     -0.043164   -0.57750400   -0.02199100
Ge   12.74470000    5.37250000   12.60391000     -0.074683    0.15322100   -0.70770500
Ge   17.19968000    5.02630000    1.33470000      1.352211    0.20509100   -0.63713400
Ge   12.64337000    6.95058000    9.07225000     -1.399553    1.15792800   -1.72819400
Ge   21.26908000   13.92075000    3.37447000     -0.639675   -1.08272800   -1.84072300
Ge   16.09230000   17.33596000    8.74415000     -0.346894    0.46725000   -0.84061100
Ge   18.04282000   20.21046000    3.90593000     -0.427673   -0.24012500   -0.43248000
Ge   19.14114000   21.52240000   13.17837000     -0.737582   -1.20183400   -0.67228200
Ge    0.15860000    0.54938000    3.51033000      0.231374   -0.76226300   -0.30433800
Ge   23.32835000    1.99348000   10.08138000     -0.159094   -0.82965600   -0.63890200
Ge   23.55545000   10.94960000    1.75827000     -0.124957    0.03698400   -0.30715600
Ge   23.24788000    9.25082000   13.23769000      1.479792    0.36860600   -0.75570200
Ge    3.25751000   14.18644000    2.76629000     -0.687900   -0.11745200   -0.46496500
Ge    0.82846000   16.19316000   11.82470000     -0.069034    0.15162100    0.26011400
Ge   23.67015000   21.92559000    5.14918000     -0.542982    0.43870700    0.58501300
Ge   21.34246000   18.76040000   11.72628000     -1.133237   -0.96866300   -0.04903400
Se    2.01079000   22.72944000   19.48920000      1.579961    1.78955600   -0.24578900
Se    2.11765000    1.50333000    9.57024000     -0.348791    0.08693200   -0.70711000
Se    1.38013000    6.15665000    1.77947000      0.213404   -1.01530000    0.61062700
Se   22.92108000    9.88555000   10.87704000      0.668869    0.15071900   -0.15026200
Se   22.14642000   12.89118000    1.07369000      0.064730    0.32587800    1.31250700
Se   23.60769000   14.44292000    8.23983000      0.782749   -0.20195900    0.05138400
Se    1.28438000   19.95639000    4.63353000      0.014325   -0.78963800   -0.22947700
Se    0.00454000   18.53699000   11.38866000      0.485517    0.35936100    0.00238400
Se    6.63678000    1.81901000    2.44629000      0.419647   -0.67662500    0.69905300
Se    5.01442000    3.89029000   13.02010000     -0.312676   -0.69530800    0.28516700
Se    9.08804000    5.12173000    4.44998000     -0.662905   -0.87236200   -0.03512100
Se    7.75105000    9.03586000   10.80948000      0.562685   -0.67450100   -0.47870100
Se    8.12008000   10.39257000    0.10309000      0.209057    0.30714700    0.85307800
Se    6.32451000   15.42853000   12.16030000      1.007485    0.13410500   -0.14887600
Se    6.77183000   19.72974000    2.54298000     -0.044766    0.12283700    0.40600000
Se    9.22180000   20.56727000   12.60659000     -0.511161    0.38274800    0.19789000
Se   11.71727000    1.25453000   19.09170000      0.226249   -0.15308800   -0.91408500
Se   13.95578000    2.46642000   11.51024000     -0.092854    0.73220200    1.18140000
Se   11.99905000    8.44785000   19.26722000     -0.108087    1.28216500   -0.49284900
Se    8.16182000   11.71775000    8.29065000      0.591675   -0.76332800    0.09634100
Se   13.41879000   14.03845000    0.39847000      0.217105   -0.26538800    0.78376900
Se   11.80873000    9.40409000    9.53182000     -0.268216   -1.33642900    0.18307000
Se   14.79078000   17.75455000   19.69692000      0.114653   -1.88453700    0.71145100
Se   12.27945000   20.77425000   12.58397000     -0.047212   -0.27449300   -0.24394900
Se   17.26163000    3.77905000    4.26533000      0.337307   -0.26507500   -0.14760200
Se   14.52491000    3.82163000   13.70171000     -0.498415   -0.74383800   -0.55630500
Se   14.54475000    5.08178000   16.58512000     -0.340694   -1.08323300    0.32975100
Se   19.87995000    2.91939000   13.16558000      0.915203    0.15638500    0.40514600
Se   20.19756000    9.93700000    1.16352000     -0.204489   -0.11527700   -0.34819700
Se   16.05189000   19.27035000    6.94449000      0.575751   -0.64023100    0.73518200
Se   19.27998000   18.76346000    0.42191000     -0.031728    0.53076800    0.93545600
Se   19.58380000   19.72133000   10.05712000      0.705932   -0.87776200   -0.50600100
Se    3.62364000   23.01690000    3.91631000     -0.234272    0.40600200   -0.15899300
Se    2.80444000    6.46576000   11.50036000     -0.156849    0.11177800   -0.02078900
Se    5.80235000   11.29110000   19.75038000     -0.148765    0.37031000    0.63896200
Se    4.79971000   12.77498000   10.83816000      0.877956    1.25472100    2.29804700
Se    3.68724000   12.94764000    0.05599000     -1.081981   -0.56197400    0.13590500
Se    3.25708000   16.98653000   11.69853000      0.336931    0.06561500    0.59641400
Se    5.31142000   21.00541000    0.32339000      0.134756    0.39258200    0.32565400
Se    5.53298000   19.72492000   12.25550000      0.192230   -0.06581800    0.70896900
Se   11.19736000    5.84184000    2.36020000     -0.730655    0.46834700   -1.29837100
Se    7.56177000    2.09173000   10.98555000     -0.283738    0.33894700    0.52918700
Se   10.55940000   12.25045000   18.75205000      0.391558   -0.23222600   -0.10354100
Se   10.44970000   12.16003000   11.33229000      0.349845   -0.62774500   -0.22607400
Se   11.32905000   15.80459000    2.44645000      0.170558    0.68294200    0.12069300
Se   12.01288000   15.99010000   13.13691000     -1.170962    0.51086900   -0.71918000
Se   11.38757000   22.68589000   18.40686000      0.085293   -0.06944200   -0.79741500
Se    9.86196000   23.21929000   11.63881000      0.249344   -0.36564200    0.86979600
Se   12.05658000    4.03756000   18.46065000     -0.664601    0.21612500   -0.07346300
Se   17.88450000    7.89539000    9.43381000     -0.108208    0.38107300   -0.25852300
Se   16.64353000   10.35092000    2.63897000      0.297654    0.69709100    0.61193700
Se   18.53967000   13.21225000   10.57738000     -0.343935    0.20038400   -0.45956600
Se   19.51810000   14.89363000    2.19490000     -0.496814    0.57585700    0.05282900
Se   13.98277000   16.02007000    8.36820000      0.474337    0.11411100    0.08933600
Se   17.33877000    0.33482000    0.43679000     -0.143963    0.70586000   -0.20619600
Se   16.53988000    0.53940000   10.87948000      1.011049    0.02877800   -1.34400100
Se    1.03837000    2.25959000    1.96389000     -0.450121   -0.51412500   -1.43030000
Se   22.37883000    4.28523000   10.14947000      0.001963   -0.21032700    0.02871900
Se   22.49258000    5.11898000    2.48864000     -0.498826    0.20699700   -0.59055500
Se   21.54109000   12.44822000   12.22278000      0.333921   -1.41205000    0.37943400
Se   23.03116000   14.71730000    4.55640000      1.375141   -0.39544300    0.40543100
Se   21.55026000   15.78028000   11.28630000     -0.068907    0.77219400   -0.40884800
Se   23.20841000   21.70162000    2.44356000     -0.626945   -0.09537400   -0.44110800
Se   21.99423000    0.09399000   15.03090000     -0.036151    0.09630200    0.38528300
Se    3.90822000    3.64173000    9.35177000     -0.253712   -0.81593900    0.24113500
Se    4.26663000    6.13193000   19.24628000     -0.934425    0.13072000   -0.50078700
Se    4.20177000   12.04653000    8.88156000     -0.883022   -0.96020800   -2.73346000
Se    4.27649000    7.03079000   14.62708000      1.123605    0.10693100    0.03162600
Se    7.28189000   18.70878000    6.25390000     -0.276017   -0.82114100    0.03485900
Se   21.98600000   16.11080000   19.08516000     -0.528053   -0.98753700    0.44957700
Se    1.75424000   21.48651000   11.58374000      2.109863   -0.45967200    1.28751600
Se    2.87781000   19.69005000   17.85499000     -0.203447    0.28638000    0.20129300
Se    7.74009000    3.39705000    8.03893000     -1.416796    0.91499800   -0.29032200
Se    5.55034000    4.46806000    0.45790000      1.168157   -0.59007500    0.16534900
Se    5.90631000   10.39212000    5.67641000     -0.110536    0.02485500    0.20214200
Se    3.92401000    9.48086000   18.50766000      0.076715   -0.04364000   -0.01185700
Se    6.42813000   18.12579000    9.32538000     -0.683123    0.29081500    0.83262400
Se    5.81882000   15.46640000   17.90610000      0.101053    1.19402500    0.69498300
Se    9.45698000   20.41864000    8.64310000     -0.218796   -0.94002400    0.08126700
Se    8.17233000    2.50464000   19.75121000      0.161015    0.35901600    0.85126900
Se   14.59829000    3.10914000    8.00717000     -0.042464   -0.68289600   -0.27574300
Se    8.45068000    4.86153000   16.43167000      0.577715    0.05250400    0.29380400
Se   11.03645000    5.24096000    8.88231000      0.434826   -0.52496400   -0.29861500
Se   18.70658000   10.57934000   16.33745000     -0.668224    1.12697800    0.09202500
Se   12.79293000   19.96104000    8.23202000      0.644727    0.27292900    0.76109100
Se   16.21552000   16.01205000   16.33193000     -1.153320    1.40601700    0.42927200
Se   15.69300000   23.30082000    6.89684000     -0.758515   -0.22489400   -0.24525900
Se   19.02930000    3.54032000   16.67777000      0.231053    0.64782400    0.14547700
Se   18.06429000    4.28173000   10.82083000     -0.510371    0.39987500   -1.15612800
Se   23.57018000    3.62549000   16.63564000     -0.910198    0.13849700   -0.35774300
Se   19.73310000    8.66113000   12.52292000     -1.240913    0.54291900    0.56723100
Se   20.37948000    8.97665000   16.39066000      0.728188   -0.45976500   -0.22722000
Se   15.79788000   19.00309000   10.55904000      0.026011   -0.04517100    0.67807600
Se   19.17039000   14.42877000   16.81900000      0.865310   -0.29125900    1.56825100
Se   17.98599000   23.13026000    7.35105000      1.170871   -0.15649600   -0.16025400
Se   17.54024000   20.93127000    1.27180000      0.608289   -1.23706800    0.64574600
Se    4.99754000   22.06765000    8.47491000     -0.207527    0.21808000   -0.39735000
Se    3.75757000    2.87130000    1.27295000     -0.298754    0.24957100   -0.44657300
Se    6.89933000    7.00838000    9.71776000      0.155606    0.59676100    0.35838000
Se    4.73762000    8.21311000    0.64139000     -0.100120    0.02109300   -0.39838700
Se    4.73460000   16.13076000    5.51160000      0.136562    0.96957800    0.45000800
Se    7.28901000   12.05380000   16.85698000     -0.457375    0.43222700   -0.05090200
Se    2.94713000   18.80407000    9.18566000      0.314290    0.55603700    0.22461800
Se   21.63939000   19.84254000    1.53142000      0.221857    0.02350200    0.39419900
Se    8.73131000   22.96039000    7.53485000     -1.034088    0.65964000   -0.54711600
Se   12.81335000    4.31306000    2.94268000      0.434683   -0.67698400    0.34102100
Se   10.55842000    1.97083000    9.27886000      1.074170   -0.60563000    0.87789500
Se    8.22754000    6.54502000    0.53374000     -0.033563    0.49230400   -0.35293300
Se   11.31627000   13.95604000    7.62804000     -0.023321    0.24796400   -0.02752800
Se    9.31977000   13.26630000    0.57395000      0.514860    0.84892900    0.06247800
Se   13.28055000   23.12280000   10.10451000      0.332567   -0.07697700    0.57346900
Se   15.43067000   12.22550000   16.93623000      0.872986   -0.22598000   -0.09230400
Se   18.07089000    3.04584000    7.01581000     -0.014484   -0.80154800   -0.60174300
Se   15.49602000    3.31664000    2.36621000     -0.128506    0.47414000   -0.44644400
Se   15.66458000    8.55306000    8.68311000      0.880317    0.11995900   -0.21829600
Se   15.15933000    8.25941000   16.79233000     -0.323690   -0.32788700    0.87781400
Se   14.94954000   13.86304000    8.54480000      0.217942    0.52464600   -0.71639100
Se   16.96778000   12.46891000   19.45359000     -1.500186    0.14197000    0.82814700
Se   13.54235000   20.04065000    2.86177000      0.143397   -0.54997400    0.66844900
Se   19.32693000   22.22368000   17.43652000      0.610122   -0.59611000    0.04593200
Se   22.59126000    0.85697000    7.62670000     -0.238554    0.36569400    1.07727400
Se    0.61983000    0.92711000   15.51703000      0.055238   -0.49170500    0.02433500
Se   21.84763000    7.27378000    8.85889000     -0.980861    0.75018400    0.25590800
Se   23.22495000    7.71381000   16.78117000     -0.122817    0.60359700   -0.02303500
Se    0.20302000   10.83834000    7.42187000      0.864726    0.27299500    0.54943400
Se   22.99721000    8.49803000   19.18394000     -0.613405   -0.02586500   -0.65380300
Se   21.49659000   17.68022000    8.43502000     -0.085126   -0.27234100   -0.62989400
Se   18.75170000   18.09078000   18.22620000     -0.209692   -0.51669700   -0.79404900
Se    1.18245000   22.44982000    9.57842000      0.768296    1.16353500   -1.94151400
Se    2.32264000    1.13225000   12.55526000      0.271173    0.16696900   -0.18492000
Se    2.69545000    8.32483000    8.67399000      0.188402   -0.43781100   -0.01843600
Se    2.17873000    7.67997000   17.93063000      1.064408    0.04815100   -0.59519900
Se    1.67726000   16.05791000    8.68150000     -0.806810   -0.03930900   -0.16873700
Se    0.26083000   12.82493000   18.35322000      0.840610   -0.03998200   -0.16158300
Se    3.73625000   20.16123000    4.92070000     -0.012053   -0.47151900    0.74693800
Se   22.93128000   19.69866000   17.87067000     -0.704913   -0.30403600   -1.05337000
Se    7.12947000   23.26406000    4.08753000     -0.411809    0.00735200   -0.09431500
Se    5.55867000    0.88026000   18.37517000     -0.082048   -0.32599700    1.15517600
Se   10.98367000    6.70341000    5.25700000     -1.049966    0.08127400   -0.41875000
Se    6.20229000    8.08866000   15.99135000     -0.351519   -0.42131700   -0.54038300
Se    7.38332000   14.68171000    8.43440000      0.444518    0.22416200   -0.66305100
Se    7.89820000   18.82701000   13.79917000      0.112120   -0.61704900   -0.94416300
Se    7.61832000   16.21247000    2.58830000      1.904638    1.77593500    0.57784500
Se    8.68523000   15.00866000   14.63460000     -0.207546   -0.10184400    0.37001500
Se   15.36601000   21.13573000    4.50267000     -0.254873   -0.07748700   -0.65100900
Se   13.87517000   22.68668000   15.90920000     -0.039483   -0.45832500   -0.71910900
Se   13.55128000    8.55793000    4.75593000      0.095524   -0.28766700   -0.15790000
Se   10.26031000    8.08261000   13.42431000     -0.677768   -0.80410100    0.31975600
Se   13.90572000   13.12598000    4.85676000      0.980050   -0.10165500   -0.15999500
Se   14.00094000   15.56545000   14.10826000      1.217690   -0.11685000    1.23871600
Se   11.99167000   18.57574000    3.91843000      0.544150    0.26110700    0.22538800
Se   16.76704000   20.68070000   17.21569000      0.467626    0.65791600    0.09370600
Se   17.16648000    1.30816000    4.02725000      0.905177    0.29890400    0.44532500
Se   19.77087000    2.04263000   18.27472000     -0.268845    0.73315300    0.20216200
Se   20.36715000    7.33216000    4.12543000     -0.586094    0.12473700   -0.62242100
Se   20.17989000    5.81064000   17.02081000     -1.490909   -0.76948300    0.08721300
Se   20.30016000   11.99648000    4.48512000     -1.002184    0.74909100    0.30105100
Se   16.66802000   11.86388000   13.06321000      0.210195   -0.34299600   -0.66915300
Se   19.42786000   17.89480000    3.79151000      0.113462    0.01691300    0.36594400
Se   21.29786000   20.37441000   13.69513000     -0.224138    0.38706500    0.16459600
Se    5.55266000    5.98243000    7.42288000     -0.607849    0.05090200   -0.44757700
Se    3.06775000    3.62736000   17.30363000     -0.708656    0.44398000   -0.21661200
Se    3.38650000   10.42692000    2.58860000     -1.053789   -1.19766600   -0.02981600
Se    4.61586000   11.53920000   13.67201000      0.812969   -0.85041400    0.14921100
Se    3.91436000   13.97275000    5.48780000     -0.074012   -0.45599000   -0.04582500
Se    1.71843000   16.53509000   18.57233000      0.831533    1.19225600   -1.41163300
Se    2.02721000    0.15135000    5.45992000     -0.137752   -0.01915900   -0.06782800
Se    3.88367000   19.70650000   13.99751000      0.124408    0.29294100    0.00894300
Se   12.05014000    0.38131000    6.34420000      0.262679    0.15764000   -0.28372800
Se    7.20374000    2.97626000   15.94854000     -1.079468    0.33554100   -0.24971000
Se   10.53867000   11.74818000    7.61539000     -0.503628   -1.16313400   -0.08354200
Se   12.18657000   13.71205000   17.11913000     -0.395367    0.45279900   -0.07499900
Se   10.17606000   17.44356000   10.99940000      0.057010   -0.41216100   -0.45968900
Se   11.76703000   19.51267000    0.08828000     -0.120738   -0.26607700   -0.39207700
Se   10.17634000   21.60221000    3.86893000     -0.060979   -0.47760900    0.72261200
Se    7.95120000   20.97857000   18.73482000      0.274970   -0.67205900   -0.14630000
Se   15.08482000    5.15302000    6.13257000     -0.906669    0.54433300   -0.50604300
Se   14.12106000    6.48158000    0.54911000      0.916144   -0.74857700    0.00731600
Se   16.02964000   11.21752000    7.31629000      0.177389   -0.47651200   -1.03608500
Se   17.46385000    6.81929000   14.29215000     -0.369068   -0.28614300   -0.23945000
Se   17.88566000   14.36268000    4.79633000     -0.655449   -0.13589400    0.24501500
Se   13.34734000   19.17181000   16.07117000      1.021107   -0.62930700    0.08758500
Se   16.06961000   22.65522000    2.72607000     -0.088351   -0.18141600    0.17651800
Se   17.57032000    3.75146000   12.97760000      0.027405   -0.17416100    1.23402600
Se   21.54399000    4.71938000    6.42885000     -0.148081   -0.43261400   -0.98439700
Se   23.08771000    5.40661000   13.75986000     -0.575301    0.21718800    0.61955300
Se   17.60299000    9.98250000   11.64755000     -0.144452    0.33632000    0.09535600
Se   21.95576000   14.46205000   15.32291000      0.722098    0.00475700    0.13622200
Se   18.34819000   16.14472000    7.49771000     -1.057364   -0.85091600    0.53074300
Se   22.70399000   16.89414000   15.43611000     -1.801597   -0.12927300   -2.21972200
Se   21.03757000   23.02416000    8.52952000     -0.022513    0.06706000   -0.30771300
Se   22.63268000   23.31544000   18.78646000      0.469941   -0.09262200    0.83328100
Se    4.03496000    2.59473000    7.16582000      0.129720   -0.52761600   -0.32401600
Se    4.28014000    0.21768000   15.44636000     -0.423851    0.67708300    0.11521800
Se    4.54601000    5.44566000    3.82410000     -1.043445    1.03216100    0.04183100
Se    4.61301000    9.19690000   11.50022000     -0.161946    0.65432300   -0.48044700
Se    1.79672000   11.98485000    3.28736000     -0.364429    0.70492100    0.28073000
Se    3.66422000   13.87587000   16.35644000     -1.124711    3.07257900   -0.02347700
Se    4.26132000   16.85659000    2.01043000     -0.853845   -0.30061600   -0.83129300
Se    3.79250000   16.22727000   14.06436000      0.121205    0.58554200   -0.70290000
Se   11.43741000    1.34140000    1.46848000     -1.521978    0.19771100    0.52988200
Se   10.97988000    1.90032000   15.10638000      0.297677   -0.16305100   -0.61175600
Se    9.88746000    8.57020000    3.26305000     -0.499434    1.24166800   -0.64106900
Se    9.63173000    8.95095000   16.86260000      0.135434   -0.32428900    0.34905700
Se    7.91999000   13.11318000    4.89777000      0.465422    0.01895800    0.15254000
Se   12.42199000   11.41289000   12.56887000      0.045877   -0.38081900   -0.51826300
Se    8.93152000   18.99419000    2.24962000      0.824804    0.09843400   -0.69129200
Se    8.09199000   22.69148000   15.16456000      0.375275    0.51834200    0.60941700
Se   18.90923000    4.77347000    8.28202000      0.358233    0.96835100   -0.24988100
Se   14.76957000    0.57710000   17.34869000      0.210561    0.82153800   -0.21444000
Se   16.83413000    7.23598000    2.16437000      0.757412    0.41333500    0.33269100
Se   13.38723000    7.49716000   13.77220000     -0.754397    0.19694100   -0.40948900
Se   18.10831000   12.49383000    2.34550000     -1.028151   -0.61754200   -0.85393500
Se   19.29374000   17.61539000   13.82155000     -0.508619   -0.25803500   -0.56534800
Se   15.13160000   16.94683000    2.68158000     -0.279286    0.25240700    0.65866300
Se   17.22384000   20.26206000   14.07051000      0.425929    0.02312300    0.15725700
Se   22.18916000    2.13386000    4.24959000     -0.810911   -0.72410100    0.48212200
Se   22.57013000    0.23132000   12.06937000     -0.098275    0.99365900   -0.52006800
Se    0.06694000    7.67370000    4.99838000      0.031607    0.21258600    1.02018500
Se   21.77261000    7.39696000   12.85436000      0.578782   -1.99455600   -0.25310000
Se    0.91188000   17.73436000    6.83410000      0.138045    0.06557100    0.28846700
Se    0.68216000   11.54765000   14.42131000      0.399770    0.09315100   -0.14916500
Se   22.22605000   20.84774000    7.20595000      0.122692    0.17189400   -0.55186000
Se   18.34157000   21.64381000   10.60896000      0.337187    0.85453300    0.99899900
Se    1.82278000    4.46629000    6.35847000     -0.026228   -0.90988700    0.44781500
Se    2.00404000    4.27162000   11.25828000      0.149692    0.35743000    0.75093000
Se   22.20393000   10.78408000    4.03382000      1.644871    0.50229600   -0.44164500
Se    1.67929000    8.12942000   13.58893000      0.031918    0.70494500    0.16040200
Se    0.95919000   15.49601000    1.93150000      0.481036   -0.48791900    0.13278500
Se    1.34285000   16.69723000   14.76477000      0.856451   -0.12576500   -0.68985600
Se    2.20789000   19.82555000    1.75937000      0.063322   -0.08807100   -1.34021600
Se    6.58750000   17.87123000   18.55542000     -0.411531   -0.79891700   -0.01711500
Se   10.63969000    2.18201000    5.48327000      0.000731   -0.38699400    0.31424700
Se    8.25315000    2.55157000   13.17549000      0.329101   -0.03648500   -0.45717300
Se    5.99542000    8.64058000    3.32814000      0.097108    0.11566400   -0.72089700
Se    8.00664000   10.76433000   13.47785000      0.292596   -0.14394100    0.04543100
Se    6.80075000   14.31254000    1.91930000     -1.494721   -2.30698800   -0.83710000
Se   10.29534000   13.83549000   13.03732000      0.013527    0.82183300   -0.21657500
Se    6.02044000   23.50600000   10.11691000      0.076961    0.54165700    0.16587100
Se    5.26893000   19.23189000   16.07300000     -0.056540   -0.10800100    0.54184200
Se   13.38065000    0.62091000    2.50593000      1.221904    0.11168700    0.46040000
Se   10.25326000    5.16019000   13.27472000     -0.144544    0.69187600   -0.17559700
Se   13.72727000   10.63503000    1.99743000     -0.252332   -0.26023600   -0.69028200
Se   14.90757000   10.45292000   13.84376000      0.724347    0.13181600    0.20186000
Se   10.28387000   16.62549000    6.52950000      0.057458    0.31123900   -0.31489300
Se   13.90105000   18.95410000   12.26679000      0.068288   -0.13900900   -0.58064100
Se   14.60102000   21.01106000   19.69356000     -0.521986    1.27024200    0.62965400
Se   15.11874000   22.52490000   13.72596000      0.496714    0.08522400    0.67349200
Se   19.73293000    4.85747000    0.69638000     -1.032263   -0.49053900    0.95878600
Se   14.70644000    6.77992000    9.97098000      1.140820   -0.76739800    1.32277200
Se   21.37422000    7.94752000    1.75339000     -0.061273   -0.12724100    0.60846700
Se    1.39758000   13.73020000   12.84611000     -0.454311   -0.78945000    0.18317800
Se   21.76661000   18.32894000    3.74255000     -0.356205    0.57984200   -0.02096600
Se   17.78124000   15.83521000   13.14330000      1.460530    0.53858100    0.43769500
Se   19.60884000   22.18492000    3.85196000      0.478756    1.20638100   -1.10921900
Se   19.11026000   23.59253000   14.24410000      0.270399    0.59608100   -0.22669200
