384
23.69824000 23.69824000 19.89960000
Ge    5.44468000    7.07259000   12.06171000     -1.008480   -1.54537000    0.25014400
Ge    6.63021000    4.28396000    3.74563000      0.657392   -0.55898300    0.37699700
Ge    1.70331000   12.95868000    7.31731000     -0.053865   -0.51509700   -0.13690400
Ge    9.49016000   12.83086000   15.44565000      0.240256   -0.10845200    0.28107100
Ge    4.97536000   15.69238000   10.19099000     -0.504139   -0.31983700   -0.78532100
Ge    9.39987000   18.88073000   19.52797000     -0.861825   -0.93752300    0.15308300
Ge    7.48520000   22.30520000   12.51640000      0.440274    0.56806600   -0.15229400
Ge    4.92714000    0.37510000    1.11059000     -0.161752    0.09773800   -0.48967100
Ge    9.19810000    5.10641000   10.52382000      0.351395    0.18494900    0.14579000
Ge   11.84096000    6.08447000   19.75901000      0.304661    0.33453100    2.01907200
Ge   10.00143000    7.72616000   10.98633000     -0.015938    0.42617600    0.25348100
Ge   13.55154000   12.11087000   18.76402000     -0.485047    0.03520200   -0.12465700
Ge   11.04284000   19.84423000   10.49056000      0.060424   -0.73073800   -0.60441900
Ge   12.44507000   16.12743000   19.19364000      0.190064   -0.28550600    0.23697000
Ge   10.98288000   23.20268000    8.71510000     -0.066503    0.30459600    0.59204600
Ge   16.03978000   22.69092000   18.66117000     -0.136388   -0.63670100    0.30370000
Ge   20.45833000    4.96867000   11.68649000     -0.087417   -0.18458300   -0.57801500
Ge   20.43695000    8.35037000   19.19787000     -0.011570   -0.60147700    0.20032700
Ge   19.74210000   10.93258000   10.61585000      0.303024    0.84042200   -0.06197200
Ge   19.19618000   12.40109000   18.68653000     -0.408542   -0.06003400   -0.51117100
Ge   15.16881000   21.17759000    9.02603000     -0.721434   -0.96594200   -0.72889600
Ge   16.73889000   16.17877000   18.58506000      1.354652   -0.27677500    2.41625100
Ge   19.89456000    0.59207000   11.87425000      0.195411    0.08083600   -0.72904900
Ge   20.18911000    3.92208000    3.15276000      0.451462    0.70833700   -0.80474200
Ge   23.33321000    5.68902000    7.55741000      0.648608    0.27880500   -0.22446700
Ge    2.70488000    3.54566000    3.52158000      0.260815    0.12533100    0.63856000
Ge    1.49012000   10.40328000    9.67636000     -0.308655    0.13635700   -0.48429500
Ge    1.67992000    8.08908000    0.41700000     -0.096635    1.49953000   -0.05877800
Ge   20.70429000   15.42294000    8.65082000     -0.029068   -0.58315600    0.19705200
Ge    0.38707000   14.92587000   19.59790000      0.896440    0.24558600    1.45953800
Ge   18.67941000    1.06969000    9.12376000     -0.359046    0.43139200    0.65990200
Ge    0.73472000   20.90064000   19.75095000     -0.211815   -1.40489900    0.42479800
Ge    4.98232000    9.50796000    8.47327000      0.629287   -0.01061900    0.51362300
Ge    1.96998000    4.26110000   19.83228000     -0.077465    0.19959400   -0.34425900
Ge    2.20979000    8.63702000    6.21699000     -0.705761    1.11062400   -0.75909500
Ge    4.57670000   11.82078000   16.10191000      0.743408   -1.91345000    0.87164100
Ge    5.99387000   17.61726000    3.64236000      0.139119   -0.32670100   -0.01365800
Ge   23.37778000   17.23983000   17.48679000      0.993312    2.77022600    0.09517900
Ge    4.85793000   20.21440000    9.95469000     -0.370892   -0.68473200   -0.09740900
Ge    4.71687000   21.60744000   18.09021000     -0.844252   -0.02469300   -1.06074900
Ge    9.10006000    1.69954000    7.53397000      0.608210   -0.89900200   -0.79222500
Ge    7.61999000    8.41144000   18.79953000     -0.379460   -0.91005100   -1.71977000
Ge    6.12380000   12.64586000    6.83593000     -0.400595    0.48516800   -0.08618600
Ge    8.03672000    8.62025000    1.85544000     -0.274634   -0.45072500    0.38405000
Ge    8.68990000   17.78256000    8.27425000      0.701338   -0.06599400   -0.15630300
Ge    3.86868000   18.79822000    0.15805000     -0.663815    0.19630200   -0.31057300
Ge   11.01327000   21.66491000    6.30254000     -0.182775   -0.04422000   -0.14785200
Ge    9.56452000    3.20003000   18.18127000      0.838853    0.51684400   -1.17990100
Ge   12.97037000    6.78744000    6.38246000      1.103535   -0.00707200    0.76901000
Ge   14.82000000    9.07337000    0.14227000     -0.340974    0.59742200    0.12788800
Ge   16.06462000   13.57607000    6.23558000     -0.793300   -0.91203500    0.58399700
Ge   17.36054000   14.19698000   15.33809000     -0.651570   -0.52008200   -0.40474500
Ge   13.21398000   15.98975000    4.21886000     -0.543244    0.75386100   -0.32534800
Ge   15.68979000   18.16709000   14.03751000     -1.010662   -0.37151200    0.15829400
Ge   14.94957000    0.77900000    8.88543000      0.317452    0.63726100    0.38369100
Ge   15.29362000    4.19742000   19.78664000     -0.004094    0.34502200    0.30237500
Ge   19.70433000    6.83426000    6.74217000      0.512961   -1.13272900    0.48806900
Ge   22.35699000    5.61827000   16.21475000      0.329427   -1.03544100   -0.78663600
Ge   20.46555000    9.11615000    8.10968000     -0.677953    1.05228800   -0.35547100
Ge   21.70539000   13.75356000   17.87669000     -0.743068    0.05574700   -0.60407400
Ge   18.77054000   18.50485000    6.97314000     -0.244257   -0.13340100    0.11543900
Ge   20.33720000   19.82379000   16.23315000      0.065907    0.35807300    0.92144500
Ge   19.41220000    1.27577000    5.31826000     -0.346154   -0.29929100    0.68826900
Ge   19.27220000   22.59248000    0.83481000      1.226147    0.03172500   -0.32699100
Ge    4.65046000    1.74503000   11.32239000      0.450688    1.13339400    0.13391100
Ge    5.35220000    3.27754000   17.98963000      0.260586   -0.33904700    0.16684500
Ge    3.31107000    6.35309000    6.21150000      0.878700   -0.64328900   -0.38953000
Ge    2.38181000   10.40100000   12.53084000      0.309686   -0.04540100    0.25401200
Ge    3.35953000   18.45132000    6.83164000      1.331754   -0.24466600   -0.71226400
Ge    1.06989000   13.94065000   15.70981000     -0.626377   -0.10570100   -0.20343200
Ge   23.20045000   21.50826000   11.07531000     -1.017959   -0.25932000    0.11705000
Ge    2.26884000   23.09902000   14.18514000     -0.660464   -0.69618300   -0.82560000
Ge    9.76428000    3.76304000    1.97992000     -0.441960    0.14115300    0.38670400
Ge    8.96219000    1.04854000   16.46880000      0.700399    0.82655700    0.54212800
Ge    8.49706000   10.70309000    5.57229000      0.118212   -0.16375300    0.69375900
Ge    7.90741000   10.04728000   15.82615000     -0.119870    0.49638900   -0.09697400
Ge    9.11833000   14.52333000    6.66127000      0.168056    0.14672900    0.85094700
Ge   16.31080000   10.02884000   15.89752000     -0.042170    1.01461900   -0.15480200
Ge    8.06031000   20.65216000    5.37128000     -0.085591    1.33352200   -0.63078500
Ge    7.81873000   19.08936000   16.73461000      0.226164    0.58943900   -0.44113500
Ge   14.31682000    2.77819000    5.46893000      0.023750    0.17758000    0.91385000
Ge   13.53253000    2.66384000   15.85478000     -0.018749    0.79254200   -0.17757100
Ge   15.07268000   10.64883000    4.90480000      0.501776    0.76238300    0.11059900
Ge   15.23408000    6.65683000   14.96695000     -0.794171    0.24359800    0.35979000
Ge   15.87173000   14.82305000    2.80941000      1.460076   -4.28464900    0.14637900
Ge   12.03786000   16.21190000   15.75163000      0.807122   -0.18665300   -0.62274900
Ge   15.04471000   19.22182000   17.84639000     -0.872340    0.77379100    0.10047500
Ge   10.24391000   21.52026000    0.33742000      0.195583    0.67150600    0.40695700
Ge   23.67102000    4.03508000    4.30175000     -0.651584    0.60943600    0.52971000
Ge   22.53133000    2.65280000   14.37988000      0.651745   -0.03270700    0.36737800
Ge   21.61723000    8.90077000    5.42252000      0.440254   -1.01509800    1.13476100
Ge   21.07935000   10.29321000   14.26984000     -0.493414   -0.10552200   -0.70065200
Ge   22.25406000   16.85655000    5.91257000      0.197640    0.13992500    0.33611100
Ge   20.03024000   14.24493000   12.01927000     -0.792357   -0.13783000   -0.32426900
Ge   20.19260000   20.88872000    5.75717000      0.005184   -0.56054500    0.85338500
Ge   21.04545000    0.38869000   17.28264000     -0.157793   -1.04047600   -0.11398500
Ge    5.74967000    3.80417000    6.20819000      2.272238    0.96394100   -0.10534300
Ge    2.61328000    3.32272000   13.88618000      0.733704    0.83569900   -0.59228500
Ge    5.63317000   11.20824000    2.83519000      0.461072   -0.13817900    0.05912800
Ge    7.36620000    8.18625000   13.42133000      1.280590    0.62850100   -0.12691700
Ge    5.06147000   14.97820000    0.30202000      0.367257   -0.58767500   -0.41940100
Ge    3.60945000   13.72135000   13.59779000      0.715796    0.92668400    0.41127700
Ge    5.47943000   22.12500000    5.54837000      0.345645    0.73855700   -0.47585200
Ge    5.66917000   22.30308000   14.76539000      0.480163   -1.19663000   -0.40674700
Ge   14.69540000    6.31485000    3.42832000     -0.079254    0.00887200    0.11790600
Ge   13.53090000    0.27841000   12.62084000     -1.057931    1.03583100   -1.21267600
Ge   11.34416000   10.55418000    1.02697000      0.152097   -0.89821800    0.30563900
Ge   13.79033000    9.83369000   11.01328000     -0.046603    0.11855800    0.86381400
Ge   11.53809000   13.46542000    2.36353000      0.086239    0.59095500   -0.84215600
Ge    7.63792000   17.41395000   11.52997000      0.604240    0.04136600    0.65740200
Ge   12.59833000   22.15783000    1.65582000     -0.156846   -0.28530400   -0.35227800
Ge   11.49726000   23.11492000   13.97480000     -0.864373    0.62236400   -0.30661400
Ge    0.79430000    1.17531000   18.76675000      1.012921    0.68804800   -0.12288400
Ge   12.87514000    5.30640000   12.54069000     -0.641685    0.84013800   -0.30920800
Ge   17.25051000    4.90215000    1.39417000      1.252431    0.11071200   -0.87182800
Ge   12.68976000    6.88552000    8.99260000     -0.755200    1.18140900   -1.06584600
Ge   21.26339000   13.89749000    3.44051000      0.311533    0.17759500   -1.78553400
Ge   16.14453000   17.38565000    8.77750000     -0.341763   -1.12574800   -1.48925000
Ge   17.97935000   20.25656000    3.98237000      0.058146   -0.48776900   -0.55739900
Ge   18.97890000   21.54071000   13.20509000      0.706083   -1.05218600   -1.17464200
Ge    0.11611000    0.49029000    3.49668000      0.184471   -0.15197100   -0.72080700
Ge   23.25627000    1.97521000   10.03629000      0.288464   -0.76467300   -0.39489600
Ge   23.58790000   10.99019000    1.76477000     -0.141908   -0.23509900   -0.06155800
Ge   23.26908000    9.28877000   13.13118000     -0.157948    0.05726400    0.21555400
Ge    3.25960000   14.16945000    2.67268000     -0.635140   -0.13684200   -0.47511700
Ge    0.85403000   16.27632000   11.94866000      0.255179   -0.72694500    0.61958800
Ge   23.67201000   22.00512000    5.22275000     -0.368661   -0.53891700    0.39459100
Ge   21.35707000   18.77201000   11.74958000     -1.273659   -0.68390000    0.16882600
Se    2.01091000   22.80645000   19.49779000      1.625922    1.50129500   -0.17296700
Se    2.18895000    1.51878000    9.49913000     -0.744158   -0.11934800   -0.68498300
Se    1.33205000    6.24169000    1.74555000      0.214882   -1.49741500    0.87276100
Se   22.94083000    9.98563000   10.83960000      0.437212   -0.04205100   -0.36300800
Se   22.22644000   12.92709000    1.16397000     -0.396481    0.62717400    1.15614100
Se   23.58161000   14.28376000    8.20391000      0.596311    0.70723300    0.41409200
Se    1.27526000   19.88813000    4.63324000     -0.162104   -0.03979300    0.07457800
Se    0.03327000   18.43317000   11.40335000      0.325836    1.33703100   -0.23858600
Se    6.63529000    1.82515000    2.40210000      0.407505   -0.60683800    0.99909600
Se    4.98495000    3.90894000   12.95840000     -0.480704   -0.73845600    0.57927600
Se    9.11268000    5.17952000    4.35905000     -1.115790   -1.02063900    0.03266600
Se    7.77563000    8.97737000   10.78821000      0.672790    0.13275800   -0.13330700
Se    8.05043000   10.48212000    0.03998000      1.012395   -0.30699700    1.18606900
Se    6.32709000   15.43357000   12.11559000      1.235283   -0.12001300    0.40546700
Se    6.82972000   19.63622000    2.42004000     -0.415300    0.44935300    0.63829400
Se    9.27870000   20.63222000   12.60364000     -0.272003   -0.09350000    0.22359800
Se   11.67922000    1.26890000   18.93464000      0.072672   -0.46020200    0.16367600
Se   14.03212000    2.51100000   11.48990000     -0.170724    0.06467100    1.25465200
Se   11.97471000    8.37395000   19.29730000     -0.216142    2.07598100   -0.79527200
Se    8.02736000   11.77132000    8.32987000      1.154209   -0.91791900    0.03195400
Se   13.47228000   14.09980000    0.43980000      0.044590   -0.23342200    0.71530600
Se   11.80574000    9.36585000    9.60053000     -0.511867   -1.32841700   -0.11712500
Se   14.80436000   17.70438000   19.61565000     -0.030596   -0.80402700   -0.01859300
Se   12.34718000   20.81985000   12.52683000      0.037820   -0.42215000   -0.28425200
Se   17.23315000    3.71306000    4.13198000      0.454520    0.19038800   -0.06573000
Se   14.58165000    3.78913000   13.60941000     -0.291944   -0.76463800    0.07340200
Se   14.49932000    5.06477000   16.66789000     -0.257265   -0.91653600   -0.22139900
Se   19.92819000    2.86385000   13.11239000      0.633190    0.33680700    0.62091300
Se   20.24896000    9.99406000    1.09012000      0.029989   -0.07315900    0.35056200
Se   16.11903000   19.15271000    7.05871000      0.540456    0.15345000    0.01825700
Se   19.34698000   18.72635000    0.40058000     -0.308481    0.36581400   -0.07962700
Se   19.58923000   19.75772000   10.11190000      0.548097   -0.79841400   -0.56358900
Se    3.58341000   23.02222000    3.85322000     -0.207617    0.36405200    0.26814200
Se    2.72050000    6.50557000   11.51609000     -0.061551   -0.16902100   -0.08770600
Se    5.81457000   11.28650000   19.80767000     -0.863223    0.52637000    0.47314900
Se    4.79641000   12.82925000   10.92003000      0.014132    0.36239200   -0.10338100
Se    3.63436000   12.90964000    0.00176000     -0.023635    1.35344400    0.51757800
Se    3.27564000   17.02251000   11.82931000      0.264681    0.12205900   -0.01367800
Se    5.25513000   20.83181000    0.37565000      0.207984    0.52783000    0.79469900
Se    5.55313000   19.65817000   12.29165000      0.222632    0.29324200    0.14708000
Se   11.24059000    5.83837000    2.50304000     -1.272476    1.23486900   -2.09866400
Se    7.40757000    2.15650000   11.06777000      0.007999    0.23872400    0.22173700
Se   10.57512000   12.33984000   18.90861000      2.106493   -1.85703000   -2.69257200
Se   10.57335000   12.12703000   11.37275000     -0.453219   -0.38837100   -0.80322000
Se   11.27883000   15.96410000    2.44399000      0.471194   -0.55314600    0.02330700
Se   11.90802000   16.10171000   13.07264000      0.211130    0.06753400    0.20285000
Se   11.47303000   22.64750000   18.31508000     -0.133327    0.25569400   -0.33669500
Se    9.86053000   23.19921000   11.57563000      0.076251   -0.53193700    0.80565500
Se   11.99135000    4.08470000   18.59306000     -0.347990   -0.39901300   -0.64074200
Se   18.01603000    7.90980000    9.46981000     -0.162084    0.40107800   -0.46111200
Se   16.58463000   10.28821000    2.68626000      0.321087    0.50321900    0.50328600
Se   18.47359000   13.21992000   10.48138000      0.277941    0.24007400   -0.13701100
Se   19.42521000   14.86555000    2.22683000     -0.028857    0.23778300    0.21148700
Se   13.97785000   16.04114000    8.39556000      0.820937    0.31592800    0.19422900
Se   17.29468000    0.31261000    0.47268000     -0.647901    0.78964300   -0.57884600
Se   16.57581000    0.49524000   10.83773000      0.679124    0.09387100   -1.22763800
Se    1.10563000    2.25291000    2.00203000     -0.530744   -0.50879500   -0.90223300
Se   22.48410000    4.33270000   10.14880000     -0.262182   -0.25034700    0.13531800
Se   22.52892000    5.15555000    2.48860000     -0.490473    0.14861400   -0.66923800
Se   21.49987000   12.38771000   12.24744000     -0.100174   -0.70837100    0.16645800
Se   23.10671000   14.77169000    4.61269000     -0.059552    0.24451600    0.41061600
Se   21.64887000   15.80830000   11.11399000     -0.727505    0.20729700    0.06856000
Se   23.18574000   21.69760000    2.40861000     -0.323448   -0.12511700   -0.53480200
Se   22.00892000    0.04271000   15.03348000      0.209854    0.40172200    0.18560900
Se    3.85906000    3.56991000    9.35292000     -0.344484   -0.45380000    0.48559000
Se    4.25002000    6.19057000   19.17488000     -0.688513   -0.71654000   -0.17624000
Se    4.14464000   12.00859000    8.78508000     -0.355939    0.26153600   -0.25609100
Se    4.41332000    7.07115000   14.66111000      0.506991   -0.03165500   -0.30457100
Se    7.33389000   18.59463000    6.24798000     -0.349068   -0.45664500   -0.17917600
Se   22.10927000   16.10968000   18.95281000     -2.867570   -1.03410800    1.59287100
Se    1.88522000   21.43689000   11.71936000      0.451042    0.23347000   -0.16383500
Se    2.82131000   19.67498000   17.86451000     -0.088492    0.40824200    0.33741700
Se    7.76993000    3.45054000    8.04017000     -1.375607    1.01706500   -0.33183900
Se    5.54704000    4.49261000    0.64091000      0.647332   -0.21423600   -0.40396000
Se    5.87218000   10.47658000    5.61581000     -0.483848   -0.19715600    0.13822700
Se    3.97381000    9.43350000   18.47307000     -0.043332    0.35042000   -0.38245300
Se    6.42803000   18.16470000    9.39358000     -0.267709    0.18153300    0.72968200
Se    5.75366000   15.58206000   17.85012000      0.102078    0.98561300    0.87752600
Se    9.43377000   20.24428000    8.55731000     -0.270396   -0.57686600   -0.08293400
Se    8.08936000    2.52204000   19.72134000     -0.269220    0.03784600    1.45573800
Se   14.61571000    3.10651000    8.08841000     -0.186807   -0.84939000   -0.45029800
Se    8.39947000    4.83289000   16.41101000      0.070138   -1.11082300    0.37100300
Se   11.13309000    5.15153000    8.83930000     -0.276265   -0.37272700    0.30606500
Se   18.76801000   10.55226000   16.28252000     -1.411101    1.81255900    0.16593900
Se   12.69183000   19.89920000    8.27416000      0.704015    0.51244900    0.93278000
Se   16.25477000   16.11452000   16.40201000     -1.388398    0.74122300   -2.39626700
Se   15.58979000   23.18363000    6.82569000     -0.194988    0.12267800    0.56289900
Se   19.00265000    3.60480000   16.64320000      0.515353    0.21195100    0.53584300
Se   17.99243000    4.26635000   10.77041000     -0.163940    0.30438900   -0.11339900
Se   23.57048000    3.61030000   16.68846000     -0.783821    0.06340200   -0.31906000
Se   19.59888000    8.60208000   12.50555000     -0.234613    0.64856800    0.77041200
Se   20.33650000    8.94674000   16.35737000      1.299492   -1.28970100    0.28967100
Se   15.86582000   19.00304000   10.46291000      0.195355    0.46980100    1.45039000
Se   19.14431000   14.38613000   16.90655000      0.260553   -0.49637300    0.97837100
Se   17.95636000   23.19409000    7.35381000      0.508463   -0.60059000   -0.77594500
Se   17.59762000   20.95634000    1.34428000     -0.390831   -1.81237800    0.50366900
Se    4.98238000   22.01327000    8.42199000      0.054433    0.47686300   -0.15125500
Se    3.72192000    2.92542000    1.27782000      0.066766    0.10847800   -0.49804100
Se    6.98840000    7.05861000    9.68438000     -0.228418   -0.15558800    0.05490600
Se    4.63618000    8.24545000    0.59099000      0.329215   -0.18752100   -0.02906100
Se    4.74438000   16.24000000    5.42161000     -0.406379   -0.12948200    0.58219700
Se    7.26722000   12.13015000   16.85911000     -0.502504   -0.06819800   -0.09927600
Se    2.95007000   18.83297000    9.21467000      0.036432    0.19110000    0.19903600
Se   21.62656000   19.91582000    1.64380000      0.064693   -0.15653900    0.13754700
Se    8.59427000   22.85901000    7.56918000      0.024344    0.72568400   -0.34159500
Se   12.86735000    4.39905000    2.99894000      1.102675   -1.46099300    0.50445700
Se   10.62677000    1.93133000    9.30804000      0.295299   -0.39845500    0.23145000
Se    8.21209000    6.55644000    0.43257000      0.233450    0.25923500    0.32681400
Se   11.32362000   13.94470000    7.57169000     -1.055407   -0.71465600   -0.30599700
Se    9.36362000   13.29924000    0.47583000     -1.040854    2.27630800    2.41395700
Se   13.26834000   23.14459000   10.11530000      0.370662   -0.11948800    0.57334000
Se   15.55643000   12.16427000   17.02738000      0.844109    0.06564400   -0.07563100
Se   18.01731000    3.12143000    7.00440000      0.266419   -0.60512300   -0.15484100
Se   15.38173000    3.27534000    2.43062000     -0.457134    0.09033900   -0.46294700
Se   15.84410000    8.62736000    8.62998000      0.588722   -0.16501800    0.00477500
Se   15.14129000    8.31484000   16.80412000     -0.589937   -0.76205400    1.35327500
Se   14.97957000   13.89820000    8.44448000      0.056387    0.45263900   -0.25055800
Se   16.88052000   12.39570000   19.51687000      0.164717   -0.03080700    0.25254100
Se   13.51280000   20.01629000    2.84511000      0.646812   -0.64544700    0.34622700
Se   19.33711000   22.29840000   17.34937000      0.667676   -0.58685000    0.00754700
Se   22.60848000    0.87932000    7.68705000     -0.121086    0.44386500    0.69932100
Se    0.67490000    0.85363000   15.49078000     -0.421846    0.04042100    0.32122400
Se   21.75980000    7.31516000    8.78014000     -0.247871   -0.18654000    0.56164900
Se   23.16010000    7.73432000   16.71561000      0.242414    0.98767500    0.13754800
Se    0.21308000   10.88770000    7.41587000      0.588553   -0.08288700    0.41838100
Se   23.07356000    8.43589000   19.13502000     -0.575691    0.17644500   -0.47588000
Se   21.53888000   17.67931000    8.42952000      0.188253    0.22375100   -0.95715900
Se   18.77378000   18.09991000   18.10192000      0.026774   -0.04539000    0.38049700
Se    1.20477000   22.34622000    9.57232000      0.765136    0.36456000   -0.46431000
Se    2.33989000    1.30573000   12.46843000     -0.034622   -0.64005000    0.58534400
Se    2.85203000    8.26843000    8.68621000     -0.864586   -0.34855700    0.03027800
Se    2.18643000    7.62735000   17.93547000      1.129333    0.10074500   -0.48309200
Se    1.62427000   15.99751000    8.68121000     -0.759447   -0.19414800   -0.15403400
Se    0.28075000   12.89392000   18.48200000      0.967745   -0.90713100   -0.75194400
Se    3.74609000   20.21390000    4.91328000     -0.465389   -0.57478000    0.70478700
Se   22.86104000   19.73085000   17.95428000     -0.352288   -0.74707000   -0.83496200
Se    7.15347000   23.30253000    4.01811000     -0.421069    0.30072200   -0.27599200
Se    5.54040000    0.84647000   18.49987000     -0.090734   -0.45130300    0.87865600
Se   10.91655000    6.77513000    5.23872000     -0.495765    0.18235400    0.22157100
Se    6.19418000    8.10700000   15.96276000      0.119225   -0.57030000   -0.11345800
Se    7.43249000   14.73792000    8.42225000      0.182864    0.43876400   -0.23144300
Se    7.78952000   18.77423000   13.78079000      0.207687   -0.48231000   -0.85835000
Se    7.68819000   16.18927000    2.51101000      1.029388    0.58989900    0.31000500
Se    8.57751000   14.85124000   14.61973000     -0.311572    0.17771400    0.31548000
Se   15.45848000   21.08606000    4.38616000     -0.597619   -0.00878100    0.05543100
Se   13.94870000   22.59325000   15.92237000     -0.017657    0.44286900   -0.45819300
Se   13.50019000    8.66814000    4.75809000      0.021712   -0.45365800   -0.04893400
Se   10.27300000    8.10748000   13.43720000     -0.831950   -0.98129900   -0.07048300
Se   13.95067000   13.17932000    4.82612000      0.796727   -0.13970700   -0.23514200
Se   13.97043000   15.45884000   14.14395000     -0.354759    0.47097500    0.61132100
Se   12.13652000   18.55079000    3.98292000     -0.034631    0.08378900    0.53099100
Se   16.75749000   20.72355000   17.23422000      0.945454    0.56034800    0.00579300
Se   17.20970000    1.24618000    4.03389000      0.387679    0.31294800    0.04035300
Se   19.77861000    2.06444000   18.32033000     -0.463212    1.25428100   -0.21568700
Se   20.36370000    7.38418000    4.04853000     -0.707203   -0.00898500   -0.66108300
Se   20.12795000    5.80979000   16.93917000     -0.802052   -0.80123200   -0.05292900
Se   20.25922000   12.05534000    4.45086000     -0.583323   -0.49552200    0.77105400
Se   16.71091000   11.69060000   13.12882000      0.697564    0.51551400   -0.91747800
Se   19.54918000   17.84641000    3.76880000     -0.812727   -0.28681700    0.51421900
Se   21.34148000   20.41411000   13.66374000     -0.751708    0.43732900    0.12580700
Se    5.52372000    5.97963000    7.36908000     -0.621289   -0.26506500   -0.48675900
Se    3.06313000    3.60640000   17.33033000      0.168456    0.29929000    0.06827100
Se    3.35897000   10.38595000    2.55012000     -0.352309   -1.01237700    0.07673000
Se    4.74896000   11.54242000   13.65073000     -0.135887    0.20309700   -0.11271300
Se    3.88235000   13.94849000    5.55367000      0.243018    0.40631800   -0.13598900
Se    1.70781000   16.50068000   18.40512000      1.234432    0.27706000   -0.64069800
Se    1.91227000    0.19088000    5.38705000      0.530642   -0.15178100    0.07004100
Se    3.87670000   19.68217000   13.97344000      0.039596    0.42855500    0.30690800
Se   11.99587000    0.36986000    6.26832000      1.109135   -0.80327700    0.30275100
Se    7.13739000    2.84839000   15.92249000     -0.249888    0.99578600   -0.30255800
Se   10.50814000   11.60002000    7.62677000     -0.584599    0.30789400    0.06918200
Se   12.25030000   13.69073000   17.01430000     -0.272448    0.45880300    0.18548200
Se   10.09693000   17.21578000   11.02828000     -0.512392    0.48321700   -0.47688100
Se   11.67026000   19.41107000    0.23414000      0.463531    0.32282500   -0.31758500
Se   10.16461000   21.58435000    3.97595000     -0.276748   -0.31366400    0.42335600
Se    8.02188000   20.94862000   18.82360000      0.280296   -0.62944000   -0.40553300
Se   14.96853000    5.16119000    6.09313000     -0.485424    0.88888700   -0.41508000
Se   14.22863000    6.60833000    0.47240000      0.019194   -1.70574900    0.19666000
Se   16.05743000   11.20784000    7.36243000      0.048300    0.04183900   -1.40371700
Se   17.36805000    6.75694000   14.30261000      0.803701   -0.18104200   -0.62229000
Se   17.83450000   14.37690000    4.82993000     -0.099090    0.15829900    0.17284400
Se   13.48401000   19.14835000   16.14580000     -0.016845   -0.41840300   -1.01518700
Se   15.97609000   22.75691000    2.73853000      0.241455   -0.56192700   -0.17793100
Se   17.62618000    3.77875000   13.03653000      0.247822   -0.15029300    0.62180700
Se   21.51786000    4.66450000    6.45103000     -0.268328   -0.21259400   -0.91413000
Se   23.13635000    5.52173000   13.68130000     -0.158017   -0.54880700    1.25655300
Se   17.61348000    9.94133000   11.58101000     -0.197364   -0.15766300    0.33920400
Se   21.83574000   14.54796000   15.30258000      0.658555    0.22400400    0.39676300
Se   18.16017000   16.05040000    7.51529000     -0.600224    0.47065000    0.53769500
Se   22.64832000   16.97538000   15.28776000     -1.133746   -0.35745000   -0.71943200
Se   21.01306000   23.09857000    8.52666000     -0.217382   -0.10410500   -0.25443300
Se   22.70465000   23.40329000   18.84116000     -1.469482   -0.87366000    0.23110800
Se    4.13666000    2.53062000    7.15399000     -0.889211   -1.55261800    0.00006300
Se    4.14024000    0.15639000   15.46951000      0.206487    1.40691100    0.93410000
Se    4.54599000    5.47419000    3.78783000     -0.832858    0.93230700    0.01082600
Se    4.50365000    9.18603000   11.55393000      0.254936    0.86373700   -0.86402900
Se    1.84363000   11.99942000    3.21355000     -0.708170    0.74886300    0.54037500
Se    3.60663000   13.89712000   16.46186000     -0.323000    1.22690600   -0.41654900
Se    4.27943000   16.79634000    1.98961000     -0.656716   -0.16929200   -0.72326000
Se    3.87647000   16.33328000   14.06927000     -0.050027   -0.26528600   -0.44833300
Se   11.43981000    1.42858000    1.48210000     -1.176850    0.06811100   -0.45992300
Se   10.93592000    1.94782000   15.10344000      0.223699   -0.44950200   -0.46187300
Se    9.88889000    8.56658000    3.28662000      0.069254    1.23379200   -0.43969400
Se    9.68781000    8.92265000   16.88977000     -0.343158   -0.18954900    0.24890100
Se    7.92926000   13.13063000    4.99244000      0.288233    0.38569700   -0.41770000
Se   12.43021000   11.46650000   12.59985000      0.784458   -0.81213400   -0.22222700
Se    8.98730000   18.91525000    2.30015000      0.923519    0.03677900   -0.64155300
Se    8.05490000   22.82290000   15.37787000     -0.048745   -0.42184600   -0.27698000
Se   18.86665000    4.84386000    8.33694000      0.276049    0.56606400   -0.79087500
Se   14.78011000    0.70497000   17.31014000      0.281300   -0.35776500   -0.40656900
Se   16.88318000    7.10644000    2.13876000      0.398886    0.46307800    0.48320700
Se   13.28678000    7.51893000   13.81732000      0.204464   -0.60680900   -0.25040400
Se   18.16965000   12.44482000    2.26153000     -0.993708   -0.41039300   -0.85536600
Se   19.20101000   17.59666000   13.80749000      0.757502    0.64154000   -0.06838000
Se   15.07413000   16.79135000    2.62562000     -1.282069    3.62119000    0.25787500
Se   17.28645000   20.22512000   14.01621000     -0.510531   -0.29757800    0.75196900
Se   22.12623000    2.10545000    4.17080000     -0.733207   -0.45440400    0.51496200
Se   22.57800000    0.13023000   11.96236000     -0.227066    0.99834300   -0.25491700
Se    0.05233000    7.63369000    4.98715000      0.397109    0.11226300    1.01883000
Se   21.83782000    7.26285000   12.80269000     -0.143717   -0.24049300   -0.60011700
Se    1.06455000   17.81464000    6.80852000     -1.240930   -0.41901000    0.13406300
Se    0.77349000   11.53131000   14.44661000      0.236034    0.21273400   -0.00483700
Se   22.20422000   20.83075000    7.28099000      0.135416    0.22149200   -0.61431500
Se   18.24204000   21.64971000   10.59887000      0.431483    0.83788600    0.95857900
Se    1.83447000    4.38783000    6.32230000     -0.003415   -0.20345400    0.31617400
Se    2.02006000    4.26372000   11.16677000      0.173451    0.94503800    0.85921000
Se   22.19372000   10.72661000    4.07518000      0.944746    1.00154500   -0.41749500
Se    1.68155000    8.22672000   13.72638000      0.064285    0.47635400   -0.01982800
Se    0.93705000   15.59943000    1.93906000      0.395120   -0.59451900   -0.12299700
Se    1.33583000   16.79764000   14.83889000      0.760959   -0.17594100   -0.98613700
Se    2.14834000   19.85825000    1.60323000     -0.032585   -0.26059100   -0.23090700
Se    6.56628000   17.99087000   18.50504000     -0.590055   -1.04096000    0.24670200
Se   10.68079000    2.08098000    5.56410000     -0.874342    0.80491500   -0.29613800
Se    8.32555000    2.60294000   13.16284000      0.167649   -0.14510600   -0.24679500
Se    5.97604000    8.64397000    3.30394000      0.529732    0.24380200   -0.95628300
Se    7.94106000   10.71337000   13.45524000      0.252467   -0.73325300    0.64727100
Se    6.77519000   14.17215000    1.97954000     -0.983837   -0.75941300   -0.32334600
Se   10.25240000   13.86785000   12.95976000      0.012396    0.99231600    0.10465200
Se    6.04213000   23.53214000   10.15847000     -0.091648    0.14139500   -0.06311800
Se    5.23045000   19.15874000   16.10969000      0.313801    0.09748200    0.49792600
Se   13.40510000    0.66520000    2.46644000      0.874608   -0.14902600    0.10596100
Se   10.30121000    5.18282000   13.32524000      0.033754    0.68341900   -0.52587200
Se   13.70185000   10.53012000    2.09391000     -0.449112   -0.17642500   -0.92048000
Se   14.92756000   10.40970000   13.84950000      0.278706   -0.35053400    0.43534300
Se   10.24866000   16.58923000    6.57757000      0.477482    0.63865900   -0.37100200
Se   13.92651000   18.95555000   12.03150000      0.200220   -0.27010600    0.43325800
Se   14.54880000   20.98758000   19.69794000     -0.409037    0.92856900    0.32865900
Se   15.08256000   22.59911000   13.66327000      1.175053   -0.38751900    0.92378600
Se   19.73414000    4.79154000    0.70165000     -0.799212   -0.65294300    1.37036700
Se   14.78490000    6.80621000    9.92218000      0.799894   -0.34333200    0.90706700
Se   21.53558000    7.98603000    1.82825000     -0.496249   -0.00741700    0.16450300
Se    1.36583000   13.78145000   12.84866000     -1.255655   -0.67588500    0.20603300
Se   21.79159000   18.34013000    3.82025000      0.430076    0.97019500   -0.30930600
Se   17.91615000   15.88762000   13.06053000      0.425182   -0.71571100   -0.07067400
Se   19.62213000   22.12954000    3.77722000      0.546294    0.91927900   -0.22345800
Se   19.19215000   23.63454000   14.16938000     -0.115414    0.69249200    0.55685600
