384
23.69824000 23.69824000 19.89960000
Ge    5.71449000    5.88466000   11.96909000     -0.023331    0.50728300    0.78174900
Ge    4.98798000    4.37912000    2.77377000      1.062949   -1.89181700    1.93604700
Ge    3.21209000   11.90537000    6.98139000     -1.327793    0.64682400   -1.04874900
Ge    9.02674000   13.95608000   17.03484000     -0.437807    0.28898000    0.14832100
Ge    4.79201000   15.66549000    9.61833000      1.171787    0.42055100    1.09951000
Ge    9.06306000   18.33132000   19.14686000     -0.152034   -0.39571400    0.22509400
Ge    7.09210000   23.67142000   11.03030000     -0.076049    0.66382500    0.67966800
Ge    5.68333000    2.53055000    0.14612000     -1.255347   -0.78425600    1.66889700
Ge    8.75369000    5.03945000   11.57192000      0.015829   -0.61248500   -0.24298500
Ge   11.28506000    5.23390000   18.34964000     -1.076654   -0.38379700   -0.00883600
Ge   11.77783000    9.29989000   11.39549000      0.338137    1.02474400   -1.32881300
Ge   13.67442000   12.70185000   18.41276000     -0.275583    0.27931700    0.60084600
Ge   11.21743000   17.52718000    8.99740000     -0.520406   -0.12476900    0.15448100
Ge   13.53540000   16.35576000    0.86973000      0.512081    1.85065100    0.12726000
Ge   11.17848000    0.48559000   10.01719000      0.368990   -0.81577600   -0.14505400
Ge   16.18952000   22.16265000   18.99990000      0.392179    0.72014200    0.01154300
Ge   19.42803000    4.75515000   11.99620000      0.104476    0.53576500   -1.67115700
Ge   19.72625000    8.51639000   17.55196000     -0.204243   -0.43558500   -0.68811900
Ge   19.95536000   13.15086000    9.91994000     -0.127946   -0.13507600    0.45867000
Ge   18.52704000   12.31391000   18.62028000     -1.410655   -1.63653700    0.12744300
Ge   14.34040000   18.77748000    8.95412000      0.179581   -1.04498300    0.69316900
Ge   18.59507000   16.24909000   19.48213000     -1.175317   -0.17954000    0.19243900
Ge   19.52874000    1.63689000   11.10573000     -0.419915   -0.11281600    0.30852600
Ge   18.75403000    3.82537000    2.44125000     -0.120488   -0.17382200   -0.08626700
Ge   23.27237000    6.04128000    8.67825000      0.229431   -0.13303500    0.76383000
Ge    0.99466000    3.80875000    3.38569000      0.830250   -0.05297600    0.55984900
Ge    1.92968000    9.61156000    9.81404000     -0.205223   -0.04084900   -0.46618600
Ge    0.69655000    9.06802000   19.78007000     -1.298574   -0.19626000    0.86898100
Ge   21.75386000   15.74818000    9.24618000      1.249605   -1.21511000    0.86999700
Ge    1.62036000   14.91915000   19.51065000     -0.639014   -1.05712700    0.66026900
Ge   20.71771000   23.15610000   10.16667000      0.023600   -0.37460500   -0.32987200
Ge    1.42183000   21.33688000    0.06561000      0.812381   -0.20260900   -0.97459300
Ge    4.72885000    7.35879000    9.09260000      0.546787   -0.25632900   -0.37933500
Ge    2.54582000    6.27997000   19.77022000      0.107418    0.29645600    0.22371800
Ge    1.56133000   10.81958000    4.58283000      0.634324   -0.68913100    0.25179900
Ge    4.43329000   12.90390000   15.86967000      0.967239    0.05097400   -0.58677900
Ge    5.54310000   19.86114000    3.00143000      1.104657   -0.13643400    0.27017100
Ge    0.45053000   17.85259000   18.18868000      0.761976    0.85671900    0.82430600
Ge    5.40259000   20.49495000    8.60593000      0.442601   -0.08190400    0.20680300
Ge    3.68361000   23.21937000   17.35773000     -0.212902   -0.30882800    0.69598600
Ge   11.18214000    2.47149000    6.85285000     -1.307240   -0.37773400   -0.25984600
Ge    6.61754000    8.62560000   19.15098000      2.102924    0.25422400   -1.09977700
Ge    6.22226000   12.64550000    6.53740000      0.799335   -0.09364400    0.24350300
Ge    8.20427000    9.74267000    2.02316000     -0.097315    0.91602800   -0.03204500
Ge    6.93041000   17.78158000    6.65767000      0.405151    0.49195700    0.43571900
Ge    5.55174000   20.53498000   18.48674000      0.328078    0.43065600    0.68648100
Ge   12.25808000   22.74929000    5.97890000     -0.414073   -0.29932900   -0.33853900
Ge   10.33320000    0.05724000   17.04651000      0.190903    0.51735200    0.17147000
Ge   12.47920000    6.95630000    5.83365000     -1.502381   -0.47965900    1.14838100
Ge   14.39419000    7.83963000   17.07291000     -0.531653   -0.07109800   -0.35787000
Ge   15.60890000   11.83886000    5.91094000     -0.243364    0.12646100    0.61709400
Ge   16.89762000   15.09639000   15.73028000      0.607863   -0.16592300    0.49490000
Ge   12.35099000   16.05495000    4.79930000     -0.363701    0.17102000    0.33497900
Ge   15.01840000   19.42937000   16.52680000      0.210595   -0.57666200    0.79217100
Ge   15.92680000    0.11483000    9.32907000     -0.636735    0.29757700    0.44345800
Ge   18.25030000    3.66273000   18.45789000     -0.488804   -0.26697000   -0.50176500
Ge   19.92065000    5.58691000    8.35047000     -0.593221   -0.52237400   -0.82913100
Ge   22.19926000    5.39844000   16.52861000     -1.573381    0.01835100    1.71510500
Ge   19.83001000    8.61591000    7.66089000      0.034340   -1.22612500   -0.32769700
Ge   22.54477000   13.84450000   17.78479000     -0.559113    0.06158100   -0.20756100
Ge   19.79545000   16.88940000    7.24078000     -0.639857    0.51869700    0.49452400
Ge   18.54928000   19.45224000   16.46261000      0.911876    0.90812100    0.75809600
Ge   20.21050000   23.57834000    7.10279000      0.106348   -0.40420100   -0.87910900
Ge   19.52993000   21.16464000    1.04900000      0.177376    0.87159300   -0.35286800
Ge    6.56032000    2.81796000    8.98223000     -1.810588   -0.27128500   -0.96454200
Ge    3.37632000    2.74518000   17.13693000     -0.077975   -0.11109700    0.25660700
Ge    3.31667000    7.04286000    5.74632000      0.669315    0.74045200    0.52480900
Ge    3.27528000    9.04416000   13.90369000      0.417747   -0.46119300   -0.00645100
Ge    1.48219000   17.13944000    6.48562000     -0.614193   -0.24404500   -0.14699100
Ge    1.81996000   15.07864000   15.89348000     -0.154876   -0.05762500   -0.27965200
Ge   23.41903000   20.66341000   10.37597000      0.743271   -0.03024600    0.38850100
Ge    5.05178000   21.16875000   16.19709000     -0.555168   -0.52867900   -1.82572400
Ge    7.54704000    2.38550000    3.37172000     -0.103791   -0.53181400   -0.21090200
Ge    8.24864000    2.50893000   15.51889000     -0.033382   -0.92505000    0.43087900
Ge    8.88783000    9.96742000    4.97774000      0.371625    0.52464400    0.52953800
Ge    9.12491000   11.15564000   15.19696000     -0.981131   -0.76050500    0.63792000
Ge    9.11368000   14.21465000    6.57533000     -0.369611    0.33375400    0.11928000
Ge   14.11635000   12.51570000   15.91846000      0.288336    0.05644900   -0.54624300
Ge    8.65612000   21.29412000    4.60081000     -0.464719    0.25657900    0.51802900
Ge    8.65434000   19.91467000   16.14110000     -0.379128   -0.17918700   -0.12682100
Ge   14.44887000    1.94808000    6.25329000      0.579121   -0.29425200    0.21332100
Ge   12.66365000    3.35724000   15.55742000     -0.645766   -0.68889100   -0.94369600
Ge   15.43985000    8.40573000    4.70888000     -0.151349    0.69306400    0.08506000
Ge   15.69271000    9.14223000   13.64243000     -0.018886   -1.27704800    0.59657100
Ge   16.46329000   13.63302000    3.29750000     -0.543884   -0.15467400    0.35224200
Ge   13.81921000   16.29434000   16.67396000      0.264444   -1.57730500    0.36641800
Ge   13.07118000   19.04981000    0.60556000      0.818811    0.07157100    0.24714300
Ge   10.55171000   21.65404000   19.16737000      0.104422    0.36798700    0.52724000
Ge   22.63908000    3.99812000    4.94751000      0.191803   -0.56286900   -0.07612400
Ge   21.11355000    2.47845000   14.62067000      0.088118   -0.72930900   -0.12313600
Ge   22.36905000    9.84140000    6.20565000      0.225386   -0.54058800    0.97994300
Ge   19.58094000    9.84095000   13.48275000     -0.631527   -0.55783000    0.76766300
Ge   22.22032000   16.85034000    2.19494000      0.333542   -0.96076300    0.82402900
Ge   19.46173000   15.91741000   14.60214000      0.177797   -0.87695000   -0.17941100
Ge   20.51173000   19.77220000    4.12364000     -0.804265    0.79618300    1.10271400
Ge   21.39242000    0.17603000   17.10201000     -1.693079    0.18378200   -0.36214700
Ge    6.30653000    4.46568000    5.56776000     -0.499058    1.02724000    0.91489900
Ge    3.99010000    1.78614000   14.43794000      0.662614   -0.62799300    0.06283600
Ge    4.55373000   12.01153000    3.08653000      0.063082   -0.33302700    0.03788800
Ge    7.63652000    8.20101000   13.27136000     -0.092334    1.03768000   -0.78260200
Ge    6.25001000   16.77844000    0.69986000     -0.316347   -0.46029900   -0.86680000
Ge    2.68434000   13.73229000   11.40685000     -0.142656   -0.12159700    0.68341100
Ge    5.50960000   22.58033000    6.26209000      0.490413    0.24170700   -0.22903800
Ge    6.72475000   20.06996000   12.94584000     -0.316719    0.11369400   -0.30953700
Ge   15.43944000    4.66538000    4.03178000     -0.598371   -0.72177300   -0.60802100
Ge   12.72814000    0.47626000   12.43924000     -1.106788    0.03632400   -0.71526800
Ge   11.67014000    8.14701000    0.28398000     -0.239655    0.34529900   -0.48519400
Ge   12.15165000    8.86905000   13.74995000      0.325746    0.13672300    0.42952700
Ge   10.82343000   14.07258000    1.51957000     -0.515005    0.71665300   -0.36711400
Ge    7.81849000   16.44805000   10.52555000      0.718261   -0.72948600    0.14779000
Ge   13.06619000    0.26666000    1.95139000      0.219675   -0.08106600    0.19812600
Ge   10.98331000   21.56064000   13.28236000     -0.552642    0.15494100   -0.97722100
Ge   23.29098000    2.82463000   18.35292000     -0.183203   -0.95906400    0.08450300
Ge   12.14405000    5.25023000   11.48913000      0.180877   -0.74783400    0.40032200
Ge   17.63157000    8.11009000   19.15158000     -0.255626   -0.17338000    0.64939600
Ge   13.15586000    7.39634000    8.60586000      0.740492    0.29709500   -0.18801200
Ge   19.53110000   12.72782000    2.58877000      1.073998   -0.88713200    0.46897400
Ge   16.17130000   14.63969000    9.93381000      0.184691    1.06699200    0.07110800
Ge   16.74441000   21.76751000    3.43570000      0.569803   -1.16032900    0.32321200
Ge   17.99163000   21.65880000   12.07405000     -0.661512    0.25610000   -0.30142200
Ge    0.17829000    0.80692000    2.87731000     -0.335495    1.03006500   -0.79726100
Ge   22.90962000    2.00006000   10.29528000     -0.750146    0.53490100    0.15210600
Ge   23.03916000    9.20958000    3.04475000     -1.054052   -0.82600000   -0.87740900
Ge   21.85445000    9.06402000   11.76037000      0.764962    0.00606100   -0.52040100
Ge    0.41946000   13.44598000    4.20980000      0.074836    1.15428200    0.39012000
Ge    0.04897000   15.65605000   11.81267000     -0.084467    0.17586600   -0.01334600
Ge    0.48027000   21.36101000    3.77096000     -0.261070   -0.14108600    0.34130900
Ge   21.57403000   18.41715000   13.10301000      0.262711   -0.55867000   -0.19595800
Se    1.85731000    0.24054000   19.80710000      0.648535    0.30117900   -0.50900100
Se    1.52405000    2.18375000    9.75654000      0.679835    0.53540300    0.01423700
Se    1.06080000    7.44209000    1.80767000      0.109467   -0.02768700   -0.94892300
Se    0.87581000    7.51403000   10.78071000     -0.150523    0.49401700    1.01981600
Se    0.94875000   11.30876000    0.75151000     -0.203741    0.53924900   -0.67323100
Se    2.96272000   13.98829000    8.98250000     -0.939913   -0.17638000   -0.97531500
Se    2.92733000   20.92778000    3.66753000     -0.322453    0.04298000   -0.14206100
Se    0.21198000   19.03870000   12.33140000     -0.407084   -0.25701200   -0.29876900
Se    4.69543000    1.62948000    2.79437000      0.200161    1.20871600    0.15368100
Se    5.60626000    2.07501000   12.26746000      0.096674   -0.29270800    0.23513500
Se    8.15251000    4.77855000    3.94605000      0.471858    0.44532500   -0.76246500
Se    8.54407000    8.82670000   10.75734000     -0.196180    0.34254900    1.03808200
Se    7.78511000   11.47570000    0.25911000     -0.146656   -0.28082800    0.03938300
Se    6.68316000   14.69410000   11.71002000     -0.396969    0.19886900   -0.78209200
Se    7.85539000   21.55750000    2.19836000      0.163144   -0.39509800   -0.06874600
Se    8.68841000   20.80531000   11.61081000      0.707624    0.32834900    0.43140700
Se   14.36585000    0.90472000    0.00631000     -0.298792   -0.07571100   -0.50421300
Se   13.97814000    2.65043000   11.64414000      0.107612   -0.53444900   -0.12988100
Se   11.80460000    7.30568000   17.28870000      0.534891    0.98684600    0.35395800
Se    9.62329000   10.39054000    8.13120000      0.262682   -0.22007500    0.11127900
Se   13.27436000   14.05467000    0.78695000      0.083456   -1.73590400    0.54361600
Se   13.96054000    9.33742000   10.13422000     -0.353397   -0.33016400    0.21834100
Se   15.74754000   17.02390000    2.03431000     -0.517267   -0.22805200   -0.70323900
Se   12.25096000   19.14850000   11.18387000     -0.290921    0.37243700   -0.87755800
Se   17.86724000    3.96956000    4.77164000      0.043087   -0.39337900   -0.02781100
Se   14.04306000    4.31734000   13.32360000     -0.052036    0.03599800    0.04618500
Se   17.22879000    5.14224000   16.27255000      0.881933    0.41586600    0.93452000
Se   18.35673000    4.40536000   14.01407000      0.303684   -0.75182000    1.01436500
Se   19.23430000   10.21416000    0.48970000      0.406027   -0.81273400   -0.02874800
Se   16.98126000   16.70290000    8.79920000     -0.134581   -0.20966400    0.02088200
Se   20.22226000   17.63225000    0.87204000      1.090620    0.61295100   -1.40109300
Se   19.97540000   20.17764000   11.72266000     -0.150464   -0.23846000   -0.55995200
Se    2.34985000    1.52540000    3.83040000      0.040608    0.21939400    0.22832800
Se    3.68015000    5.91986000   14.01267000      0.599025    0.32872200   -0.52538700
Se    5.44742000   12.04405000    0.62156000     -0.220040    0.43944000    0.65609100
Se    4.27159000   12.01340000   10.85799000      0.310022   -0.58350500    0.44020100
Se    4.32476000   15.50627000    1.10673000      0.134836   -0.29258500    0.26916100
Se    3.38772000   16.36721000   11.66836000     -0.495715    0.04452500   -0.41878200
Se    5.64770000   23.03141000   19.24178000     -0.667061   -0.75395500   -0.26363200
Se    4.86841000   21.74276000   12.01771000      0.860592    0.25598700   -0.95710500
Se   12.53697000    5.59488000    0.44259000      0.934298    0.41009000    1.34585800
Se    8.48202000    2.69640000   10.18956000      1.800397    0.04385400    1.47801400
Se   10.55757000   10.74256000    0.12986000      0.268763    0.39506000    0.25781600
Se   11.50490000   12.00935000   11.58857000     -0.137274   -1.15910300    1.05777800
Se   11.56567000   16.62146000    2.39447000     -0.233289   -0.47093100   -0.16088700
Se   11.53306000   15.31355000   13.71318000     -0.813790    0.18546100   -0.14564900
Se   12.71244000   23.20483000   18.11186000      0.045949    0.26036600    0.62735900
Se    9.36739000   23.45752000   12.44456000      0.398029   -0.50614100   -0.12647300
Se   12.91041000    3.54974000   17.89383000     -0.059345   -0.28812000    0.35421200
Se   17.62544000    7.71459000    9.60683000      0.349505   -0.27489900   -0.74476100
Se   15.32723000    7.06543000    0.25470000      0.783862   -0.71447200    0.34051400
Se   18.05214000   13.79960000   11.72340000     -0.089031   -0.17081500    0.25331900
Se   18.69522000   14.98717000    2.20027000     -0.191903    0.35136100    1.02130500
Se   14.02862000   13.66453000    9.03738000     -0.064931    0.31434100   -0.22191800
Se   17.51143000   22.71576000    1.34256000      0.612066   -0.05263700   -1.46318000
Se   16.30297000   21.58689000   10.14753000      0.511085   -0.37453800    0.44598400
Se   23.53909000    3.12662000    1.44145000     -0.377331   -0.88904900    0.12053100
Se   21.85621000    4.27896000   10.35512000      0.710530   -0.20497000   -0.02826500
Se   21.37088000    5.45034000    3.57423000     -0.699272    0.52054100   -1.19194900
Se   21.18822000   11.81431000   11.64912000      0.449361    0.09307700   -0.12374700
Se   22.52613000   14.08312000    2.02104000     -0.357304    0.06528700   -0.42025600
Se   21.13054000   15.92399000   12.12128000      0.175157    0.21869300    0.11769100
Se   23.15419000   22.39545000    1.80286000     -0.350351    0.03673100    0.83571800
Se   21.80159000   22.20390000   15.45662000      0.733455    0.39474200    0.25851900
Se    4.81250000    4.70391000    9.99841000     -0.283704    0.30326600   -0.56855900
Se    3.87156000    5.23720000   17.19961000      2.572641    0.52290400    0.87833200
Se    4.24518000   10.51518000    8.45162000      1.605851   -0.65053400    1.29530500
Se    4.24042000    8.66429000   17.07530000     -0.592782   -0.00787000   -0.61283900
Se    5.24825000   19.83499000    6.07314000      0.438965    0.14005100    0.28473300
Se   22.77849000   16.31922000   19.29345000     -0.365513   -1.41997400   -0.27725800
Se    1.34936000   22.81596000   11.79923000     -0.288484   -0.44003200   -0.46260900
Se    2.70288000   20.85361000   17.74267000     -0.355219    0.25250900    0.29066400
Se    7.89448000    3.40226000    7.04260000     -0.118000    0.15965600   -0.26085000
Se    5.34228000    4.90415000    0.62967000      0.403494    1.17010200   -2.16691200
Se    7.43905000   10.30463000    7.04625000      0.093777   -0.00237900    0.59706600
Se    4.51313000   10.04179000   19.08198000     -0.290920    0.32474900    0.23539300
Se    6.12792000   18.14287000    9.81688000     -0.019401   -0.19025200   -0.62844800
Se    6.17617000   17.45052000   17.94168000      0.726710   -0.18548800   -0.10359200
Se    9.09437000   19.20119000    7.16983000     -0.780532    0.78221200    0.55491300
Se    8.31090000    2.23320000    0.91532000      0.360038   -0.48051200    0.30884600
Se   13.53841000    2.11952000    8.70118000     -0.396076   -0.12855200   -0.01349000
Se    8.49694000    4.06518000   18.58168000      0.743319    0.91519700    0.27202100
Se   11.32370000    7.13568000   10.21184000     -1.247810   -0.00683300   -0.33353400
Se   16.06718000   13.59520000   17.71659000     -0.005035   -0.23197100   -0.10047200
Se   13.26215000   16.73656000    7.91695000     -0.108366    0.32130100    0.18768700
Se   15.96667000   16.95361000   17.70039000     -1.116251    0.36294700   -0.79191400
Se   14.43473000   23.15153000    7.35592000      0.432495    0.11667600   -0.28480300
Se   17.26085000    1.79450000   16.93059000      1.211472   -0.64808000    1.36152700
Se   17.32479000    3.46962000   11.10834000      0.335829   -0.12442400   -0.07130000
Se   20.91788000    3.51218000   17.98191000      0.284774    0.92708600   -0.43997700
Se   18.70709000   10.38912000   10.36976000     -0.295716   -0.73873300    1.13034000
Se   19.13196000   10.21168000   16.06032000      0.213662    0.69247300   -0.00415800
Se   14.97388000   17.01422000   11.04445000      0.417662   -0.11902100   -0.41058400
Se   19.74132000   14.29030000   18.48167000      1.932915    0.76656700   -0.46197900
Se   19.33348000   21.62036000    8.43495000      1.350180    0.07327600    0.42413400
Se   18.91192000   18.96777000    2.21763000     -1.085405    0.09907100    0.80288300
Se    5.70251000   23.27868000    9.02060000     -0.139873   -0.11604600   -0.57825100
Se    3.13344000    2.38921000   19.70211000     -0.429100    0.21470500   -0.33634900
Se    7.65724000    6.82344000    9.98705000     -0.080549   -0.53220600   -0.34111300
Se    4.83827000    7.91819000    0.56209000     -1.781063   -0.56903100    1.12644900
Se    3.03762000   16.61164000    4.57369000      0.192657   -0.64933000    0.40194600
Se    6.46893000   12.80173000   17.44197000     -0.495766    0.04518700   -0.79074500
Se    2.38002000   20.65835000    8.43033000      1.625168    0.75099100    2.21418500
Se    0.68752000   19.00193000    0.47483000     -0.161390    0.16438300   -0.11368100
Se   10.57369000    0.05210000    7.46595000     -0.821820    0.43823600    1.09610300
Se   11.65582000    3.56702000    1.69682000      0.478626    0.06527900   -0.74437800
Se   12.05465000    3.98248000    8.60714000      0.011316    0.35270800    0.76558700
Se    8.75386000    7.62870000    1.41063000      0.371411   -0.81779400   -0.68137000
Se   11.10217000   13.40071000    7.71993000      0.366282    1.33281400    0.72208500
Se    9.05920000   15.21547000   19.33748000      0.526743   -0.65688600    0.46568700
Se   12.62799000   22.01867000   10.28262000     -0.481441    1.18901000    0.31406000
Se   12.15264000   14.51661000   17.49722000      0.616117    0.69334500   -0.63185800
Se   18.23339000    0.97739000    8.70829000      0.373228   -1.09254800    0.02613300
Se   16.49790000    4.51918000    0.91577000      1.345243    0.08179200    0.27453900
Se   16.15144000    6.33899000    8.15275000      0.192287    0.53164200    0.49482900
Se   15.20778000   10.18204000   15.79503000      0.337595   -0.25635800    0.54789000
Se   14.61170000   11.56335000    8.22759000      0.535482   -0.10552100   -0.29531000
Se   16.87658000   13.00395000    0.66772000     -0.198623   -0.82502700   -0.53076900
Se   14.89543000   18.52344000    4.94687000      1.341721    1.41138900    0.77462700
Se   18.65631000   21.38407000   18.06248000     -0.299914    0.03885300    0.13313700
Se   22.47384000    0.39078000    8.38736000     -0.658170   -0.18248700    1.40570500
Se   23.10170000    1.44253000   16.02815000      0.248638    0.17155100   -0.69939800
Se   21.18348000    7.30077000    9.49833000      0.106017    1.41624800    0.08447200
Se   23.27936000    6.52971000   18.47883000     -0.271611   -0.28607500   -0.11328400
Se    0.63611000   10.73443000    7.74005000     -0.155134    0.65912300   -0.23357900
Se   21.08390000    8.62289000   19.45460000      0.495926    0.14031500    0.23538600
Se   21.49926000   17.96965000    8.69267000     -0.510741    0.92098200   -0.44646100
Se   19.19453000   17.29217000   17.26259000      0.756128   -0.02695900   -0.73962900
Se    2.31457000   23.63649000    9.83532000     -0.213365   -0.18634900    0.27628600
Se    2.49777000   23.44541000   14.33674000      0.516471    0.00189500    0.01155500
Se    2.42248000    7.47145000    8.20398000     -0.023157    0.05130200   -0.23960600
Se    1.83685000    8.13100000   17.89537000      0.925852   -0.47235500   -1.01848200
Se    0.91595000   15.64467000    9.15839000     -0.454847    0.20953700   -0.45977500
Se    2.37252000   12.81164000   17.01331000     -0.679289   -0.76430100    1.15108200
Se    1.05956000   19.95813000    6.89761000     -1.520834   -1.02600600   -2.04679300
Se   23.01023000   19.21258000   16.63043000     -0.238364   -0.43836400   -0.48717800
Se    7.49790000   23.59312000    4.98420000     -0.320385   -0.79851900    0.56237200
Se    6.95851000    2.26390000   18.13159000      0.318226   -0.66950600   -1.81966000
Se   10.05109000    6.47262000    5.98995000      1.052497    0.16129900   -0.31370700
Se    7.23769000    7.28126000   16.51125000     -0.713044    2.27380500    0.19338600
Se    7.36974000   14.09941000    8.56238000      0.237534   -0.21096000   -1.55428200
Se    8.55452000   17.80027000   12.39214000      0.650059    0.41519600    0.56482600
Se    6.78490000   17.79985000    4.00861000     -0.074296   -0.03862300   -0.56498100
Se    8.35557000   17.02249000   16.81899000     -0.676207    0.63042500    0.38693700
Se   14.22525000   21.89424000    4.48283000      0.450029    0.02273000    0.91303900
Se   13.69892000   23.24145000   15.49526000     -0.386820   -0.46954300    1.38573500
Se   12.84917000    8.44267000    4.07181000      0.719078    0.37987800   -0.00035600
Se   10.07261000    7.68148000   14.53013000     -0.193622    0.39720500    0.11644700
Se   14.26789000   12.42011000    4.12894000     -0.462019    0.05169400   -0.53433000
Se   14.86390000   14.55651000   14.57813000     -0.915357    0.33823900   -0.57419500
Se   12.64226000   18.62027000    4.99650000     -1.372060   -0.37514600    0.06702500
Se   15.55849000   19.83087000   19.30474000     -1.011800   -0.83588400   -0.04327300
Se   18.76735000    1.34255000    4.05687000     -0.413649   -0.15852100    0.06517900
Se   19.03813000    0.70625000   18.51339000     -0.199561    0.42958000   -1.46721700
Se   19.78957000    6.81717000    5.84698000      0.284521    0.26985500    1.46281200
Se   20.04866000    6.65983000   16.00640000      0.318665   -0.20567200    0.53446700
Se   19.59506000   12.22411000    5.22957000     -0.407919    0.01971000   -0.42311800
Se   18.43835000   13.04130000   14.14448000      0.067087    0.79411800   -0.41072000
Se   18.92446000   18.74362000    5.97256000      0.668278   -0.05401900   -0.61359500
Se   20.30813000   20.59757000   14.81775000     -1.225411   -1.08278400    0.14992300
Se    5.84113000    7.11005000    6.53419000     -0.446720   -1.17593100   -0.22310200
Se    1.72091000    4.97049000   16.86880000     -1.886459   -1.00745800   -0.56255800
Se    3.83936000    9.56269000    4.72898000     -0.401104    0.18811800    0.56762000
Se    3.75562000   11.50466000   13.77858000      0.140150    0.09195900   -0.07392500
Se    3.22344000   14.16933000    4.93276000     -0.307509    0.55789900   -0.08927500
Se    2.58520000   16.66324000   18.23203000      0.486847    1.13949600   -1.04530700
Se    0.12663000   22.78955000    5.80380000     -0.036887   -0.73267900   -0.35734300
Se    3.69391000   20.79705000   13.74022000     -0.869842    0.28682500    0.53954400
Se   12.37905000    1.30462000    5.01207000      0.276996    0.33123400   -0.90905600
Se    8.24640000    5.32761000   16.44364000      1.119421   -1.88386400   -0.36675700
Se   11.42096000   11.37574000    6.77236000     -0.744957   -1.55651000   -0.51513700
Se   10.58769000   11.84656000   17.29124000     -0.200145   -0.17571600    0.28423600
Se   10.48783000   15.40447000    9.95983000     -0.957064    0.88707700   -0.00062700
Se   11.40379000   19.37716000   18.67047000      0.407749   -0.28490600   -0.55384400
Se   11.06470000   21.61562000    4.00000000     -0.099512    0.07533600    0.37308100
Se    8.18029000   20.76492000   18.45479000     -0.333881   -0.40354500   -0.08439200
Se   13.54056000    4.80531000    5.83023000      0.699504   -0.39979400   -0.40986100
Se   15.27631000    5.27634000   17.34870000     -1.158623    0.49660800    0.67706100
Se   17.16852000   10.05716000    5.57097000     -0.414837   -0.90241700   -0.34582100
Se   17.80582000    7.89936000   13.48552000     -0.500637    0.81752900   -0.37805300
Se   17.33677000   13.50926000    5.75611000      0.777992    0.54774700    0.30791900
Se   12.87229000   18.16090000   15.73814000     -0.111930    0.73074200    0.01463000
Se   16.40318000    0.41683000    4.21384000      0.162235    0.97730500    0.37791400
Se   16.57271000    2.91508000   13.59110000      0.009911    0.14015000   -0.19209100
Se   22.43616000    4.15990000    7.28467000     -0.359381   -0.35740700    0.07424400
Se   22.48452000    4.47384000   14.43580000      0.889622    0.61594700   -1.15649500
Se   19.31353000   11.01253000    8.27753000      0.206644    1.06754400   -0.55806300
Se   21.88682000   13.23778000   15.30212000      0.902538    0.17860000    0.54609900
Se   20.80766000   14.62262000    7.23350000     -0.401633    0.26849800   -0.03186900
Se   22.31618000   17.12167000   15.38725000      1.030407    0.45459400    0.05386400
Se   21.94161000   21.25570000    7.16708000     -0.458493    0.78163800   -0.18507500
Se   22.50681000    0.05290000   19.02200000      1.122952    0.27217000    1.97849600
Se    4.03265000    3.24824000    6.04304000     -0.182094   -0.01270500    0.73437000
Se    6.35640000    0.58248000   15.73235000     -0.019624    0.40403000   -0.37222800
Se    3.01345000    5.39724000    3.37890000     -1.474083    0.40419000   -0.06266500
Se    4.95103000    8.33318000   11.87198000     -0.206118    0.04443900    0.27175500
Se    2.59616000   10.34750000    2.19181000      0.190251    0.38527900    1.08865400
Se    3.75668000   14.84575000   14.40237000      0.513378    0.03924100    0.53234900
Se    4.73327000   19.02662000    0.39113000      0.068166   -0.28797200    0.95403100
Se    4.62113000   18.25896000   13.00486000      0.122066    0.20451800    0.74320600
Se   10.05060000    1.81779000    2.61717000     -0.583870   -0.80724700    0.26836600
Se   10.89702000    1.51369000   14.93636000     -0.172314    0.22530600   -0.14616400
Se   10.21950000   11.04839000    2.59906000      0.664616   -0.25338900   -0.33420100
Se    8.95312000    9.42305000   16.99683000     -0.243796   -0.04150900   -0.52394800
Se    8.36431000   12.86478000    4.67588000     -0.283251   -0.00696500    0.67503300
Se   11.34789000   11.34599000   14.25485000      0.695199    0.58381400   -1.17187000
Se   10.04905000   20.55946000    1.65836000     -0.541583    0.02634400   -0.22488600
Se   10.52177000   21.53492000   15.80199000      0.843632    0.08377100    0.04300800
Se   18.40606000    3.29393000    8.74880000     -0.209527    1.34372600   -0.53894100
Se   14.45300000    1.68309000   15.92765000      0.715316    0.41807600    0.11874700
Se   16.83779000    6.55980000    4.39668000      0.456588    0.84059400    0.00010600
Se   13.94227000    7.17529000   14.03124000      0.579073    0.76105100    0.22432300
Se   17.57102000   11.12003000    2.29144000     -0.920663    1.27737800    0.01779800
Se   17.07042000   18.56383000   14.69449000     -0.169321    0.19744400   -0.77692600
Se   15.81286000   16.51928000    4.35982000      0.006028   -0.92627700   -0.36117900
Se   16.35756000   20.72398000   13.69296000     -0.147212   -0.16254100    0.06457500
Se   22.46970000    1.25350000    4.87273000     -0.057845    0.15996100    0.07620400
Se   22.73923000    1.27857000   12.60594000     -0.524329    0.09483400    0.10373200
Se    0.51951000    8.45613000    5.03706000     -0.346949   -0.12000800    0.27780700
Se   21.03289000    7.66797000   13.59207000     -0.094431    0.54541600   -0.45984400
Se   23.08920000   16.00141000    5.74329000      0.833349   -0.30657300   -0.50347100
Se    0.52915000   12.81715000   14.68279000     -0.431742    0.19318100   -0.22100200
Se   22.96900000   19.21190000    4.11516000      0.045502   -0.12679300   -0.11073600
Se   21.85614000   21.68064000   12.12922000     -0.601785    0.53442500   -0.91709000
Se    3.02585000    4.19013000    7.99634000      0.645856   -0.09069800   -1.09225400
Se    2.40188000    4.09678000   14.39779000     -0.729088   -0.35835000   -0.84087200
Se   21.93626000   11.19454000    4.20598000     -0.162862    0.81095900    0.41616900
Se    1.05377000    9.22537000   12.67914000     -0.459302   -0.23520200   -0.32259000
Se    0.91930000   15.18106000    2.24567000      0.619052    0.25079800    0.15927000
Se    0.98516000   16.84761000   14.27054000     -0.874346   -0.13595100   -0.09210900
Se    3.87308000   21.25986000    1.34718000     -0.904787    1.10595200   -0.17123900
Se    4.81519000   18.59780000   15.58007000      0.197624   -0.09644600    0.09295500
Se   10.80358000    4.28547000    3.78392000     -0.694173    0.93575600    1.10510300
Se    7.32257000    3.28547000   13.44233000     -0.545321    0.58690300   -0.64687700
Se    6.69953000    9.80256000    3.91313000     -0.354239   -0.02008400   -1.07265500
Se    7.28762000   10.79539000   13.68897000      0.353448   -0.50582000    0.03540800
Se    8.18598000   16.92858000    2.18614000     -0.374059   -0.00073600    0.17888000
Se    9.22901000   15.85856000   13.85462000      0.724091   -0.16394300   -0.01327700
Se    7.96351000   21.17978000    8.58513000     -0.021122   -0.96147300   -1.22289600
Se    7.12500000   21.60427000   14.92945000      0.310941    0.19811700   -0.20149300
Se   15.16668000    1.85690000    2.58098000     -0.131409   -0.49925800   -0.29683100
Se   11.05880000    5.66137000   13.89572000      0.013406   -0.57037800   -0.36104800
Se   14.43489000    8.97386000   19.33881000     -1.302759    1.83086100   -0.26716500
Se   14.22325000   10.64663000   12.63135000     -0.168809    0.89377700   -0.65447600
Se    9.88081000   16.41117000    5.71734000     -0.217459   -0.12810200    0.00961600
Se   13.05011000   17.60979000   12.67551000      0.493238   -0.68954700   -0.38966500
Se   14.26645000   21.61163000    2.15443000     -0.641192   -0.11551900   -0.95335900
Se   14.48996000   22.96352000   13.38808000      1.599558   -1.01424600   -1.58814300
Se   18.44089000    6.23310000    0.67067000      0.020129   -0.84069300    0.23016600
Se   14.44007000    5.54407000    9.72145000      0.429060    0.45991700   -0.71949400
Se   20.61232000    7.85004000    3.25499000      0.852063    0.03930600   -0.00600200
Se    0.22241000   12.99954000   11.71434000     -0.165728    0.15967600    0.64402200
Se   20.16309000   15.63624000    3.99751000      0.303638    0.31359500   -0.38767700
Se   18.07081000   16.98229000   12.86512000      0.055328    0.06891100    0.26085400
Se   19.43784000   22.29787000    4.19621000      0.295158   -0.23894500   -0.14627900
Se   18.39303000    0.17372000   12.91532000      0.213500    0.02182700   -0.18069300
