384
23.69824000 23.69824000 19.89960000
Ge    5.45062000    7.08357000   12.09357000     -1.183120   -0.88108500    0.08674100
Ge    6.72215000    4.22477000    3.81520000     -0.482976   -0.25769400    0.23096500
Ge    1.65260000   12.95713000    7.28676000      1.600926   -0.38825700   -0.87930800
Ge    9.46152000   12.70405000   15.46624000      0.273690    0.07230500    0.01290400
Ge    4.90997000   15.68362000   10.18465000     -0.231365   -0.43398300   -0.04326000
Ge    9.25585000   18.86886000   19.71472000     -0.143113   -1.34473600   -0.14682400
Ge    7.61956000   22.17856000   12.42146000     -1.303763    1.36762600    0.12783400
Ge    4.83760000    0.48177000    1.04597000     -0.734079   -0.26163700    1.25149400
Ge    9.15158000    5.17131000   10.57050000      0.725037    0.01728700   -0.17834400
Ge   11.88089000    6.13131000    0.06878000      0.769086    0.66467500    1.11517600
Ge   10.03300000    7.73035000   10.91840000      0.239082   -0.11430100    0.42170800
Ge   13.56905000   12.25416000   18.72397000     -0.495278    0.17555000    0.03466000
Ge   11.08695000   19.89490000   10.38437000      0.208960   -0.81524500   -0.38912500
Ge   12.45786000   16.14771000   19.23271000      0.154641   -0.17997900    0.41319700
Ge   11.05656000   23.34838000    8.88028000     -0.116618   -1.78694200   -0.30808000
Ge   15.92967000   22.52844000   18.64603000     -0.162466    1.25480400    0.72987500
Ge   20.49877000    4.89820000   11.68655000     -0.275424   -0.02033300   -0.98872900
Ge   20.52237000    8.31955000   19.43299000      0.099908   -1.39676300   -0.84937900
Ge   19.66086000   11.00756000   10.56025000      0.768332    0.80838100   -0.14190500
Ge   19.24933000   12.33984000   18.45950000     -0.773960   -0.84187200    0.56490100
Ge   15.13671000   21.09320000    9.01199000     -0.763550   -0.66013300   -0.71088800
Ge   16.72675000   16.13172000   18.62501000      1.078666   -0.38775200    0.37471100
Ge   19.86697000    0.56287000   11.82593000      0.510968    0.20891300   -0.95995400
Ge   20.26477000    4.02638000    3.33429000      0.321864    0.54415600   -0.51084800
Ge   23.35272000    5.72261000    7.52239000      0.149831    0.04934500   -0.33258800
Ge    2.98189000    3.49964000    3.72839000      0.230132   -0.40088600    0.37810400
Ge    1.36551000   10.48767000    9.52839000      1.121725   -0.36067000    0.30862800
Ge    1.74964000    8.25720000    0.48749000     -0.458377    0.43673200   -0.01457100
Ge   20.82103000   15.48118000    8.79683000     -0.899155   -1.33838500   -1.50567000
Ge    0.33500000   14.99946000   19.76766000      1.020471    0.01581400   -0.57558800
Ge   18.63553000    1.02882000    9.17868000      0.066561    0.88645000   -0.08750100
Ge    0.83970000   20.83736000   19.81328000     -1.454993    1.66175400   -2.91322000
Ge    4.88156000    9.57827000    8.63597000      1.215978    0.32243900    0.48749700
Ge    1.96006000    4.22981000   19.78819000     -0.310047    0.34619500   -0.57752500
Ge    2.17546000    8.75350000    6.18974000     -0.137604    0.27786700   -0.18362700
Ge    4.57084000   11.50188000   16.10698000      0.304424    0.75791400    0.30127900
Ge    6.08983000   17.57120000    3.60122000      0.596690   -0.58492700   -0.43010000
Ge   23.53514000   17.40941000   17.43152000     -1.393892    1.42060400   -0.35116600
Ge    4.74357000   20.10480000    9.89475000      1.052605    1.18433700    0.76482400
Ge    4.64261000   21.52735000   18.22062000     -0.742634   -0.10782500   -0.73967200
Ge    9.05389000    1.61582000    7.50460000     -0.003418    0.10683900    0.43652500
Ge    7.57536000    8.30043000   18.78647000     -0.256673    1.03808200   -1.82720700
Ge    6.08943000   12.66913000    6.79357000     -0.924954    0.77420500    0.08062300
Ge    8.16495000    8.59099000    1.91976000     -1.840418    0.04372100   -1.11449000
Ge    8.71501000   17.66773000    8.19655000     -0.431356   -0.73620300    0.49992900
Ge    3.68932000   18.67232000    0.22741000      0.354751   -0.09613700   -1.39290400
Ge   10.89224000   21.75660000    6.18004000      0.569113   -0.18663300    2.83502900
Ge    9.59420000    3.02474000   18.18056000     -0.054510    0.29666200   -0.40730500
Ge   13.03387000    6.90759000    6.42770000     -0.774626    0.60966600   -1.14390300
Ge   14.95582000    9.14627000    0.22022000     -0.191808    0.61735400    0.42612600
Ge   15.99496000   13.68911000    6.22761000     -0.078227   -1.26977700   -0.39090800
Ge   17.30878000   14.21307000   15.13029000     -0.056381    0.30390100    0.70861600
Ge   13.21134000   16.09961000    4.14125000     -0.331821    0.28343800   -0.13677000
Ge   15.80891000   18.17413000   14.07668000     -0.926607   -0.60216500    0.02468700
Ge   14.91190000    0.81862000    8.87853000      0.522022   -0.52546400   -0.28076700
Ge   15.10848000    4.01986000    0.13197000      0.617871    0.63745000   -0.19221200
Ge   19.76931000    6.76902000    6.64685000      0.565904   -1.09948700    0.47206100
Ge   22.48083000    5.55195000   16.23575000     -1.332129    1.06548500   -0.98018300
Ge   20.39544000    9.18626000    8.01706000     -0.865290    1.24376000   -0.21617500
Ge   21.75030000   13.77596000   17.90121000     -0.235238   -0.26310100   -0.69527300
Ge   18.82671000   18.54540000    6.88357000     -0.540763   -0.77281300    0.19090500
Ge   20.28531000   19.90287000   16.36397000      0.406727    0.36213100    0.63588400
Ge   19.22833000    1.23666000    5.26911000      1.410163   -0.39149100    1.60663800
Ge   19.18200000   22.64627000    0.88936000      0.739409    0.02151200   -0.22003900
Ge    4.61732000    1.81037000   11.24239000      0.441110    0.58778100    0.64339600
Ge    5.55475000    3.18965000   18.01194000     -0.359345    0.12321400    0.34357700
Ge    3.35815000    6.37256000    6.13039000     -0.003764   -0.55224200   -0.77633000
Ge    2.26915000   10.25558000   12.46119000      0.436480    0.92437100    0.07088300
Ge    3.48610000   18.42516000    6.79983000      1.134659   -0.12377600   -0.33605300
Ge    1.07074000   14.05411000   15.81549000     -0.392826   -0.17799000   -0.07272100
Ge   23.12855000   21.28544000   11.12125000      0.899108    0.54126400   -0.33590500
Ge    2.26146000   23.16292000   14.10104000     -0.243131   -0.46369900   -1.46389400
Ge    9.71427000    3.84351000    1.92796000     -0.207640    0.01784400    0.04198100
Ge    8.93699000    0.98745000   16.56907000      1.189281    2.66267500    0.78249000
Ge    8.33502000   10.84006000    5.77401000      0.619409   -0.64987900    0.61477500
Ge    7.89482000   10.09297000   15.94263000     -0.001300    0.18994600   -0.35854900
Ge    8.98840000   14.62071000    6.79597000      2.096669   -0.69991200   -0.85573600
Ge   16.27937000   10.12770000   15.94727000     -0.227185   -0.59229300    0.17496500
Ge    7.96738000   20.70305000    5.32846000     -0.132428   -0.05862500   -0.03318500
Ge    7.91794000   18.93709000   16.65493000     -0.246813    0.58540400   -0.00348000
Ge   14.30514000    2.94470000    5.54418000     -0.231479   -0.85599900    0.55945500
Ge   13.57690000    2.63065000   15.83554000     -0.088177    0.93807300   -0.33496600
Ge   15.16599000   10.68560000    4.89525000      0.201332    0.61569100    0.31157800
Ge   15.20424000    6.76255000   15.10793000     -1.238603   -0.36195000    0.20316000
Ge   15.95789000   14.58920000    2.83466000      0.125133   -0.69387100    0.08887700
Ge   12.17599000   16.23672000   15.74471000      0.227924   -0.10250000   -0.28946200
Ge   15.06258000   19.23284000   17.64984000      1.565581    0.27374500    3.25520300
Ge   10.25303000   21.68341000    0.34281000      0.450242   -0.03988100   -0.32286500
Ge   23.63169000    4.02593000    4.30332000     -0.856269    0.02502100    0.25350000
Ge   22.50480000    2.79090000   14.70347000      0.410890   -0.59454700   -1.13985200
Ge   21.74952000    8.66778000    5.55685000     -0.478691    0.74492300   -0.23468300
Ge   20.94128000   10.46642000   14.39145000     -0.150787   -0.60954300   -0.59483000
Ge   22.20733000   17.24074000    6.07603000      0.862770   -0.98852400   -0.44404300
Ge   19.96979000   14.27820000   11.86619000      0.100793   -0.58402500   -0.08293100
Ge   20.26664000   20.81165000    5.90300000     -0.356643    0.19782200   -0.38988300
Ge   21.06503000    0.46570000   17.24604000     -0.226817   -0.66787900    0.76819900
Ge    5.88561000    3.71582000    6.28379000      0.911709    0.51719700    0.05039000
Ge    2.64666000    3.45087000   13.97240000      0.671688    0.43905500   -0.62378800
Ge    5.65923000   11.27193000    2.85058000     -0.425988   -0.78392900   -0.07811400
Ge    7.62610000    7.97597000   13.34594000      0.715057    0.98203800    0.17890100
Ge    5.39775000   15.05951000    0.33346000     -0.819277   -0.77497200   -0.61516300
Ge    3.44561000   13.78926000   13.69870000      1.502633    0.11573700    0.63064600
Ge    5.66748000   22.10123000    5.44384000     -0.383260    0.61501100   -0.19316100
Ge    5.66541000   22.31240000   14.75434000     -0.242769   -0.27528800    0.14101400
Ge   14.45727000    6.38994000    3.49734000      0.876906    0.81581700   -0.31639100
Ge   13.39463000    0.33599000   12.62211000      0.523313    0.75451100   -0.90869900
Ge   11.35901000   10.36416000    1.05778000     -0.213379   -0.55851400    0.21793700
Ge   13.79275000    9.94195000   10.98752000      0.060332   -0.05907600    0.77956800
Ge   11.62315000   13.57130000    2.28309000     -0.486202    0.75308100   -0.71947700
Ge    7.51737000   17.39904000   11.73101000      1.485046    0.03062400   -1.43141000
Ge   12.56874000   22.04918000    1.74388000      0.238178    0.57876100   -0.45193100
Ge   11.44039000   23.26260000   13.92762000     -1.186243    0.23702500    0.37451800
Ge    0.77154000    1.15013000   18.66916000      1.009152    1.00833600   -0.24203400
Ge   13.00821000    5.29474000   12.41087000     -0.678487    1.14347900    0.03509100
Ge   17.42902000    4.72369000    1.39780000     -0.710506    0.13171900   -0.48838400
Ge   12.70218000    6.89349000    8.79838000      0.451021    0.35274700    1.47799500
Ge   21.28803000   13.88325000    3.38334000      0.323361    0.67387500    0.20744600
Ge   16.18832000   17.33201000    8.70796000     -0.570955   -1.82630000    0.37816600
Ge   17.90317000   20.28345000    4.04463000      1.175181   -0.34312000   -0.52703200
Ge   18.82649000   21.50258000   13.12702000      1.859183    0.65064700   -0.81715200
Ge    0.06489000    0.39109000    3.40037000     -0.144068    0.49543000   -0.71834900
Ge   23.18320000    1.88530000    9.94017000      0.830722    0.21468000    0.83312800
Ge   23.62513000   11.02383000    1.77175000     -0.234166   -0.35769600    0.21381500
Ge   23.28110000    9.35063000   13.00397000     -1.046714   -0.11483000    1.02599700
Ge    3.20186000   14.12913000    2.48310000     -0.307679   -0.07984000   -0.64195000
Ge    0.92378000   16.33481000   12.19748000      0.423625   -0.44758300    0.87420800
Ge   23.63648000   22.07063000    5.36414000     -0.319099   -1.03616400   -0.12381600
Ge   21.26170000   18.72717000   11.80712000     -0.669199   -0.36650300    0.54807300
Se    2.14535000   23.02644000   19.50305000      0.656064   -0.44029800    0.18611700
Se    2.22231000    1.52250000    9.33013000     -1.381508   -0.80119600   -0.51448000
Se    1.28089000    6.24732000    1.76722000      0.401067   -0.54638100    0.27677300
Se   23.00280000   10.13135000   10.74945000     -0.189792   -0.22666100   -0.34103900
Se   22.30794000   13.03743000    1.38835000     -0.437332    0.42146700   -0.38848000
Se   23.58222000   14.11652000    8.19539000     -0.385629    1.25963100    0.75115500
Se    1.24702000   19.78817000    4.64566000     -0.085557    0.52440800    0.49261500
Se    0.09861000   18.39741000   11.40317000     -0.262672    1.29242400   -0.35179600
Se    6.66819000    1.77868000    2.42861000      0.180230   -0.45105000    1.15127500
Se    4.89686000    3.87368000   12.91771000     -0.284224   -0.34859300    0.70498200
Se    9.05142000    5.17397000    4.22830000     -1.081569   -0.77953300    0.26409200
Se    7.87160000    8.92030000   10.75493000      0.335521    1.13923600    0.31816100
Se    8.03116000   10.57959000    0.04749000      0.536165   -1.11560300    0.74879200
Se    6.42759000   15.41633000   12.07925000     -0.018479   -1.05623200    0.09897600
Se    6.88565000   19.53437000    2.30035000     -0.006380    0.55402300    1.06249800
Se    9.35175000   20.70915000   12.62009000      0.685525   -1.01830500    0.20822000
Se   11.63056000    1.25179000   18.72199000      0.204011   -0.35731300    0.88130100
Se   14.12232000    2.57471000   11.55687000     -0.625461   -1.11317400   -0.39303900
Se   11.91604000    8.43975000   19.27161000     -0.221160    1.02692700   -0.57309800
Se    7.93111000   11.76802000    8.38741000      1.158706   -0.77774500   -0.30279400
Se   13.55224000   14.17069000    0.55708000     -0.040078   -0.16459500    0.08449600
Se   11.75641000    9.19117000    9.69117000     -0.305819   -0.69496900   -0.38750100
Se   14.82224000   17.56629000   19.48853000     -0.148999    0.35880600   -0.16114500
Se   12.45248000   20.84763000   12.41175000      0.123519   -0.67846700   -0.52368200
Se   17.23767000    3.63751000    3.92597000      0.618015    0.69116300   -0.05301500
Se   14.64891000    3.68065000   13.49069000      0.333780    0.35737400    1.62753000
Se   14.41031000    4.96006000   16.76809000     -0.028479   -0.44418600   -0.58380000
Se   20.05108000    2.81078000   13.08532000     -0.052773    0.34656500    0.45348000
Se   20.33385000   10.08502000    1.02309000      0.334516    0.66355000    1.08618200
Se   16.26406000   19.01866000    7.20471000      0.187927    2.23065700   -1.79597700
Se   19.41430000   18.70473000    0.35937000     -0.598288    0.22780900   -0.58885400
Se   19.64345000   19.74935000   10.14751000      0.132345   -0.12206700   -0.36409300
Se    3.50645000   23.06267000    3.78499000     -0.047921    0.18048800    0.39645400
Se    2.59327000    6.55284000   11.53698000      0.351605    0.09346200   -0.01952400
Se    5.75725000   11.32129000    0.03246000     -0.571787    0.13281800    0.01494200
Se    4.79043000   12.94512000   11.03284000     -0.520595    0.08595100   -0.89021500
Se    3.55415000   12.97308000   19.86778000      0.441097    1.71294700    0.69321400
Se    3.32062000   17.09291000   11.99840000     -0.220477    0.30760000   -1.88102300
Se    5.18465000   20.61955000    0.52015000     -0.139312    0.59063400    0.21778400
Se    5.59796000   19.59036000   12.35482000     -0.284655    0.83916100   -0.46635400
Se   11.21103000    5.92948000    2.53408000     -0.185817    0.45174400   -1.43757200
Se    7.18574000    2.27204000   11.20730000      0.775486    0.13635200   -0.13819200
Se   10.75790000   12.33118000   18.94253000      0.174775   -0.20191900   -0.44326500
Se   10.70558000   12.05611000   11.36176000     -1.040701    0.44724800   -0.52748700
Se   11.24645000   16.15280000    2.43810000      0.494434   -1.11320300   -0.34845800
Se   11.77013000   16.26784000   12.99289000      0.478524   -0.44201100    0.35189900
Se   11.58692000   22.61396000   18.15435000     -0.531849    0.29798600    0.31002800
Se    9.86779000   23.12602000   11.55514000      0.192640   -0.15437700    0.67379400
Se   11.85737000    4.12186000   18.73543000     -0.302760   -0.01999300   -0.55082900
Se   18.20239000    7.96357000    9.48289000      0.334839    0.20393000   -0.48635700
Se   16.52720000   10.23432000    2.80206000      0.454377    0.10833100    0.32804300
Se   18.40015000   13.25176000   10.32848000      0.449995    0.08456900    0.03723000
Se   19.28590000   14.84236000    2.28976000      0.180730    0.00831600   -0.02613900
Se   14.04013000   16.10425000    8.45004000      0.224967    0.46052800    0.06617400
Se   17.17538000    0.34407000    0.47390000     -0.376980    0.21923300   -0.61083900
Se   16.68259000    0.43797000   10.67013000     -0.201100    0.17788800   -0.40948300
Se    1.15644000    2.20127000    1.98649000     -0.492333   -0.08355800   -0.06454400
Se   22.61707000    4.37388000   10.15788000     -0.376263   -0.79872100    0.06531800
Se   22.54022000    5.22516000    2.43163000     -0.131953    0.11809400   -0.53533500
Se   21.41784000   12.24720000   12.29173000     -0.872344    0.50543200   -0.40070600
Se   23.20239000   14.87404000    4.73013000     -1.204277    0.27627500   -0.05240600
Se   21.73547000   15.86191000   10.88426000     -0.418076   -0.22722200    2.03019900
Se   23.13548000   21.68778000    2.30921000      0.678249    0.32695000   -0.44314300
Se   22.04984000    0.00292000   15.04794000      0.204924    0.52735500   -0.17285400
Se    3.75822000    3.42372000    9.38976000      0.020157    0.24376900   -0.06010500
Se    4.16406000    6.20957000   19.05164000     -0.459590   -1.09997200   -0.09157300
Se    4.02223000   11.97733000    8.62128000     -0.412715    0.76946500    0.76105800
Se    4.64141000    7.12258000   14.67226000     -1.380862   -0.68225700   -1.24651500
Se    7.38097000   18.39445000    6.21478000     -0.436483    0.62587100   -0.70677700
Se   22.06439000   16.04107000   18.87344000     -1.183728    0.47092500    0.46315000
Se    2.10775000   21.38385000   11.90028000     -0.864900    0.51846000   -1.11694400
Se    2.72828000   19.69245000   17.90992000     -0.143960    0.43900800    0.28319200
Se    7.71045000    3.60020000    8.01121000      0.187952   -0.47151500   -0.28008200
Se    5.59522000    4.51051000    0.87370000      0.140460   -0.02928600   -0.66406800
Se    5.77438000   10.57950000    5.54213000     -0.814276   -0.34238300    0.24045100
Se    4.04133000    9.40238000   18.38202000     -0.205354    0.89575600   -0.58950100
Se    6.41210000   18.23144000    9.56027000      0.529854   -0.43156000    0.43523600
Se    5.66769000   15.83625000   17.84300000      0.135350    0.04530000    0.61972500
Se    9.38111000   19.94328000    8.42138000      0.108389    0.70659100    0.05156300
Se    7.95864000    2.55927000   19.79330000      0.830987    0.28194900    0.39301900
Se   14.62456000    3.03560000    8.16832000     -0.242155    0.04951700   -0.38433800
Se    8.32925000    4.69459000   16.41078000     -0.007336   -0.93693800    0.31573400
Se   11.25623000    4.99079000    8.80471000     -0.236257    0.41628100    0.62294300
Se   18.75597000   10.64515000   16.21190000     -0.078069   -0.17295300    0.04513400
Se   12.60714000   19.85197000    8.41797000      0.882993    0.60953200    0.44751600
Se   16.20110000   16.32594000   16.30459000     -0.119360   -0.40382600   -1.20965700
Se   15.42351000   23.02405000    6.77751000      0.462953    0.59740600    1.10280500
Se   19.00026000    3.70967000   16.63241000     -0.240402   -1.10993900    0.06142900
Se   17.87824000    4.26954000   10.69308000      0.419600    0.18393400    0.90804100
Se   23.51527000    3.58354000   16.75709000      0.488950   -0.54812300    1.24610500
Se   19.37913000    8.57300000   12.54868000      0.660847    0.41600000    0.83519800
Se   20.36993000    8.80972000   16.33414000      0.233602    0.21080500    0.41082200
Se   15.99244000   19.04009000   10.44643000      0.586580   -0.04927800    1.08618000
Se   19.11510000   14.28748000   17.10740000     -0.752645    0.55250000   -0.69028700
Se   17.95201000   23.23390000    7.28641000     -0.152125   -0.68375800   -0.81842800
Se   17.64551000   20.83538000    1.48585000     -0.428504   -1.19621000   -0.56993000
Se    4.96901000   21.97218000    8.33808000      0.309572    0.32218200    0.42977000
Se    3.68170000    3.01238000    1.24820000      0.524939   -0.11315800    0.14395600
Se    7.09570000    7.10355000    9.63070000     -0.615338   -1.07044300   -0.42094300
Se    4.51418000    8.27573000    0.51812000      0.714874   -0.44004500    0.37732300
Se    4.72327000   16.39108000    5.34134000     -0.532903   -0.75088300    0.63141500
Se    7.19018000   12.23159000   16.85543000     -0.454734   -0.56971700    0.05107900
Se    2.94185000   18.88282000    9.26021000     -1.215838   -0.85596400   -0.74632300
Se   21.60719000   20.00704000    1.82053000     -0.657038   -0.56693900   -0.27469700
Se    8.39778000   22.76982000    7.59070000      0.743940    0.54083800   -0.30698000
Se   13.01369000    4.40578000    3.11972000     -0.884515   -1.08595400   -0.23276600
Se   10.74177000    1.86013000    9.37156000     -0.953842    1.51123700    0.02440900
Se    8.21433000    6.58067000    0.32069000      0.646051   -0.61085100    1.22531400
Se   11.23708000   13.86376000    7.46138000     -1.102726   -0.94659600   -0.11495000
Se    9.36625000   13.52412000    0.50796000      0.892581    0.25486500    0.23716900
Se   13.28635000   23.16911000   10.18316000      0.506037   -0.06290000    0.32493100
Se   15.80971000   12.09050000   17.15701000     -0.161092    1.07171000   -0.09761900
Se   17.96310000    3.18492000    6.98422000      0.526562   -0.13762800    0.56367800
Se   15.17274000    3.21635000    2.49072000     -0.094198   -0.42372900    0.12834600
Se   16.15471000    8.72007000    8.55558000     -0.479425   -0.56994700    0.23762800
Se   15.07200000    8.34143000   16.93657000      0.103992    0.09737300    0.80853000
Se   15.02210000   13.98679000    8.29006000     -0.497915   -0.03234900    1.43404400
Se   16.77125000   12.28357000   19.63604000      1.296107   -0.02798300    0.12300000
Se   13.53089000   19.92593000    2.84288000      0.814274   -0.45400500   -0.34380900
Se   19.41076000   22.35586000   17.22369000      0.268009   -0.66072500    0.29184700
Se   22.62192000    0.94998000    7.82861000     -0.273014    0.08201600   -0.71830700
Se    0.71666000    0.74760000   15.48590000     -0.679979    0.35104700    0.65665900
Se   21.60916000    7.34836000    8.71499000      0.125232   -0.85747500    0.49805600
Se   23.08533000    7.84410000   16.62922000      0.210819    0.17719800    0.28970200
Se    0.26842000   10.94512000    7.43570000     -0.504131   -0.74494700   -0.63137400
Se   23.13440000    8.35962000   19.01946000     -0.547292    0.31464500   -0.31101200
Se   21.61783000   17.70738000    8.33785000      0.048173    0.72012300   -0.11780800
Se   18.80868000   18.10859000   17.95968000      0.057315    0.05802000    1.26390400
Se    1.29569000   22.21878000    9.53684000      0.089094   -0.27467900    1.03943500
Se    2.35631000    1.50302000   12.39107000     -0.359159   -1.13718700    0.88694500
Se    2.99588000    8.14640000    8.69954000     -1.699431   -0.39293800   -0.48603200
Se    2.29725000    7.55319000   17.90478000      0.751749   -0.06370100   -0.13930100
Se    1.47867000   15.89321000    8.66475000     -0.334426    0.21892800   -0.13601800
Se    0.39169000   12.92316000   18.61107000      0.449942   -0.25985400   -0.37085900
Se    3.71936000   20.24686000    4.96407000     -0.519950   -0.21102700    0.45479200
Se   22.72611000   19.71671000   18.00633000     -0.064444   -0.43671500   -0.56846200
Se    7.15593000   23.39418000    3.88711000     -0.067854    0.67717100   -0.42773100
Se    5.50766000    0.76020000   18.74721000      0.389797   -0.08475200   -1.13175800
Se   10.78799000    6.89790000    5.24039000      0.757777   -0.01516100    0.97614800
Se    6.21230000    8.09094000   15.92381000      1.620445   -0.04639300    1.05608100
Se    7.50355000   14.87030000    8.40501000     -1.298719    0.86155500    1.60579300
Se    7.64707000   18.65881000   13.69231000      0.571712    0.31456400    0.83814700
Se    7.87559000   16.20025000    2.41920000     -0.209278   -0.34980700    0.17307700
Se    8.39552000   14.62830000   14.62049000      0.159847    0.13041900   -0.14121000
Se   15.53799000   21.01225000    4.22608000     -1.123446    0.16572600    0.97899000
Se   14.05651000   22.50063000   15.89463000     -0.123581    1.24683800   -0.61994500
Se   13.42650000    8.79697000    4.76259000      0.070307   -0.16404700    0.34616900
Se   10.22008000    8.05584000   13.45047000     -0.243249   -0.90631100   -0.12599600
Se   14.08462000   13.24241000    4.75474000      0.311243   -0.36256700   -0.59733500
Se   13.89644000   15.34428000   14.24915000     -0.534380    0.61438800   -0.15166800
Se   12.33981000   18.52032000    4.13825000     -0.840563    0.28389100    1.24803000
Se   16.82620000   20.82630000   17.26198000      0.854089   -0.30831100   -0.04033900
Se   17.28844000    1.18372000    4.03229000     -1.329862    0.33014000   -1.16035000
Se   19.75751000    2.19872000   18.36840000      0.165808    0.36673100   -0.41462500
Se   20.29840000    7.46787000    3.87867000     -0.260469    0.30191100   -0.13742200
Se   19.99433000    5.74592000   16.81275000      0.904753    0.44559400    0.05311700
Se   20.16014000   12.09517000    4.46308000      0.714368   -0.80453900    0.31998700
Se   16.83868000   11.48848000   13.14819000      0.344514    1.16448600   -0.58722800
Se   19.66003000   17.74922000    3.77756000     -0.613139   -0.23105700    0.48283300
Se   21.34064000   20.50792000   13.62400000     -0.849213    0.16081900   -0.16620900
Se    5.42888000    5.95094000    7.25114000      0.122721   -0.30180500    0.08739800
Se    3.07774000    3.60242000   17.37524000      0.750251    0.17564500    0.07908000
Se    3.28722000   10.25032000    2.50560000      0.021348    0.21593400    0.50163600
Se    4.93207000   11.57278000   13.61581000     -0.616738    0.91856700    0.34033900
Se    3.85522000   13.94922000    5.64413000      0.198143    0.68727600    0.06043500
Se    1.80336000   16.46433000   18.11145000      0.550007   -0.54658200    0.59560000
Se    1.79421000    0.23492000    5.28463000      0.883053   -0.18216800    0.21264400
Se    3.86800000   19.68499000   13.96738000     -0.018678    0.61972500    0.54724800
Se   12.02441000    0.27539000    6.18701000      1.099260   -0.43514200    0.43672500
Se    7.02209000    2.74550000   15.85719000      0.430801    0.83308600   -0.17862500
Se   10.41335000   11.41175000    7.65067000     -0.270918    1.04393100    0.13368600
Se   12.32194000   13.69661000   16.87698000     -0.237061    0.10868700    0.40866200
Se    9.92983000   16.91850000   11.02791000     -0.485664    0.86527700   -0.28473200
Se   11.57055000   19.29528000    0.42236000      0.705744    0.88002100   -0.44214700
Se   10.10978000   21.52797000    4.13601000     -1.180766   -0.31555900   -2.51371900
Se    8.14733000   20.85589000   18.92016000     -0.200659    0.24256700   -0.66003700
Se   14.76518000    5.26097000    6.00386000      0.766344    1.15157300    0.14940200
Se   14.38824000    6.64524000    0.37870000     -0.398889   -1.56704800    0.40692800
Se   16.10128000   11.19746000    7.30443000     -0.015960    0.24015500   -1.29258700
Se   17.29843000    6.64548000   14.25924000      0.426781   -0.18918400   -0.59128700
Se   17.75037000   14.41592000    4.88839000      0.274131    0.27026400   -0.31163500
Se   13.62687000   19.07427000   16.10451000     -2.370963   -0.18965200   -3.24947200
Se   15.85889000   22.85611000    2.73635000      0.355371   -0.74594600   -0.61605900
Se   17.73426000    3.80983000   13.16856000      0.411259    0.07482400   -0.43916700
Se   21.46689000    4.57129000    6.40711000      0.228673    0.31518800   -0.52262200
Se   23.21928000    5.61953000   13.69160000      0.954948   -1.66318800    1.83242900
Se   17.60975000    9.86271000   11.51265000     -0.303659   -0.23702100    0.32643200
Se   21.71466000   14.70591000   15.30287000      0.526253    0.55418500    0.17148400
Se   17.83116000   15.95333000    7.59133000      0.514421    0.66551200    0.41139400
Se   22.47683000   17.05932000   15.01778000      0.148676   -0.79945200    0.96394700
Se   20.95271000   23.19813000    8.50097000     -0.451884   -0.23695000   -0.13738100
Se   22.66647000   23.44444000   18.94316000     -1.652639   -0.84743600   -0.06517500
Se    4.22087000    2.29981000    7.12985000     -0.101619   -0.79878700   -0.40926300
Se    3.96695000    0.17568000   15.58586000      1.123392    0.22294000    0.45341600
Se    4.47898000    5.59302000    3.73649000     -0.231260    0.22014200    0.15642700
Se    4.37378000    9.23504000   11.55458000      1.112902   -0.02130900   -0.88164100
Se    1.85389000   12.07438000    3.14821000     -0.497798   -0.44895600    0.48731400
Se    3.49750000   14.01462000   16.57682000      0.539623   -1.05705900   -0.95198600
Se    4.25354000   16.69370000    1.89462000     -0.076969    0.13498100   -0.36337600
Se    4.00083000   16.45920000   14.05891000      0.043254   -1.14018700    1.04384600
Se   11.35395000    1.55799000    1.46780000     -0.020550   -0.34652000   -0.37167600
Se   10.89205000    1.97416000   15.05917000      0.185150   -0.70187700   -0.23775400
Se    9.91646000    8.67309000    3.29407000      1.243752    1.07209700    0.20550900
Se    9.73424000    8.86513000   16.95544000     -0.848165    0.13639900    0.19096900
Se    7.96941000   13.19891000    5.09130000      0.213320    0.73911200   -0.83096700
Se   12.52235000   11.47287000   12.63038000      1.002976   -0.75019900   -0.09273300
Se    9.13809000   18.79464000    2.32697000     -0.134129   -0.34267000    0.17437400
Se    7.97815000   22.94404000   15.65779000     -0.926962   -2.51803500   -1.24453800
Se   18.82215000    4.99560000    8.34813000     -0.201379   -0.26526600   -0.84820300
Se   14.82237000    0.85292000   17.21530000      0.379329   -1.30641700   -0.23295600
Se   16.99114000    6.94962000    2.14232000     -0.033842   -0.00207500    0.40981900
Se   13.15953000    7.49705000   13.86405000      0.933350   -0.83752800   -0.08109900
Se   18.17182000   12.33964000    2.06289000     -0.756878    0.10876400   -0.31837000
Se   19.14130000   17.64517000   13.79443000      1.235043    0.98352600    0.42654200
Se   14.91024000   16.80967000    2.57025000      0.852878   -0.04609000    0.27882700
Se   17.31751000   20.13398000   14.01073000     -1.151915   -0.29569900    1.22174400
Se   21.97429000    2.02593000    4.09622000     -0.088005   -0.20017500    0.28483700
Se   22.56748000    0.06375000   11.77973000     -0.322096    0.68081900   -0.05878000
Se    0.07549000    7.57738000    5.05990000      1.200761   -0.51304600    0.61165100
Se   21.90025000    7.06981000   12.65795000     -1.131999    1.46381000   -0.99104600
Se    1.17365000   17.89700000    6.77700000     -1.601846   -0.57809600   -0.12632300
Se    0.93191000   11.52684000   14.48343000      0.132011    0.26877400   -0.05417500
Se   22.19017000   20.82393000    7.34137000      0.547666    0.16238500   -0.22250200
Se   18.13678000   21.72551000   10.66388000      0.691256    0.14407700    0.26197500
Se    1.85244000    4.25786000    6.29038000      0.009469    0.32515600   -0.09489100
Se    2.05510000    4.33580000   11.10471000     -0.220862    0.67834900    0.60843800
Se   22.25120000   10.72605000    4.11569000     -0.240359    0.56612000    0.60410500
Se    1.68894000    8.40369000   13.92853000      0.015758   -0.24281300   -0.02382900
Se    0.94380000   15.70623000    1.94975000      0.507215   -0.17704200    0.74702800
Se    1.38308000   16.93091000   14.85680000     -0.058299   -0.30984800   -1.09613900
Se    2.07207000   19.86592000    1.39890000      0.949461   -1.47647500    3.85036500
Se    6.48291000   18.08116000   18.45049000     -0.229425   -0.47656000    0.23391600
Se   10.65715000    2.00958000    5.65327000     -0.744312    0.94852300   -0.54127400
Se    8.44887000    2.66678000   13.12422000     -0.010784   -0.18712800   -0.11538300
Se    6.00019000    8.67228000    3.18638000      0.778856    0.23080800   -0.67411600
Se    7.86776000   10.57300000   13.47801000      0.315991   -0.66902800    0.66484900
Se    6.66387000   13.90868000    2.04517000      0.417422    0.77194400    0.13865500
Se   10.18852000   13.99782000   12.85076000      0.039926    0.27144400    0.17464700
Se    6.06084000   23.58482000   10.21095000     -0.529312   -0.00486300   -0.47938200
Se    5.21125000   19.05950000   16.20903000      0.903260    0.34999800    0.37238200
Se   13.49923000    0.71309000    2.41036000     -0.580335   -0.67879400   -0.42260100
Se   10.37554000    5.27716000   13.35150000     -0.006975    0.51086900   -0.64134700
Se   13.62208000   10.35801000    2.15511000     -0.492206    0.08557900   -0.93861200
Se   14.97775000   10.31580000   13.89526000      0.102838   -0.31644100    0.08065900
Se   10.24597000   16.58919000    6.61333000      1.008564    0.33757800   -0.59763700
Se   13.97453000   18.93448000   11.71933000     -0.308404   -0.27770000    1.04867800
Se   14.43157000   21.02735000   19.73333000     -0.464231    0.07537700    0.21571100
Se   15.12270000   22.68266000   13.65197000      0.258345    0.10870500    0.56449400
Se   19.67635000    4.63828000    0.82404000      0.814930   -0.47040700    0.52581600
Se   14.95265000    6.82122000    9.91562000     -0.634422    0.34312200   -0.33817600
Se   21.72874000    8.04061000    1.95513000     -0.815333   -0.14014500   -0.21842500
Se    1.20510000   13.79991000   12.86707000     -0.975159   -0.41156300    0.31690400
Se   21.86820000   18.44785000    3.90543000      0.206607    1.01804500   -0.44686300
Se   18.14446000   15.87642000   12.91817000     -0.332816   -1.56833800   -0.53550300
Se   19.68594000   22.12085000    3.66321000      0.179999    0.23710700    1.08007300
Se   19.30007000    0.04093000   14.10347000     -0.552798   -0.51477900    0.44623100
