384
23.69824000 23.69824000 19.89960000
Ge    5.42179000    7.05918000   12.10581000     -0.960774   -0.38332900    0.00177100
Ge    6.74662000    4.19693000    3.84581000     -0.693545   -0.24584000    0.06291800
Ge    1.67005000   12.94459000    7.25738000      1.351956   -0.09457700   -0.81598500
Ge    9.45923000   12.66165000   15.47501000      0.250882    0.13556900   -0.04652900
Ge    4.87894000   15.66970000   10.17533000     -0.003939   -0.36290400    0.29592400
Ge    9.19668000   18.83017000   19.77545000      0.136554   -1.44376300   -0.42730200
Ge    7.63919000   22.16925000   12.39201000     -1.437969    1.28140700    0.22165700
Ge    4.79190000    0.51464000    1.04390000     -1.070373   -0.22045800    1.86237200
Ge    9.15437000    5.19538000   10.58315000      0.805866    0.16249900   -0.17288400
Ge   11.91181000    6.16209000    0.17864000      0.878790    0.59748500    0.03200800
Ge   10.04853000    7.73259000   10.90719000      0.128473   -0.49529100    0.36774200
Ge   13.56060000   12.30535000   18.71072000     -0.435094    0.15185000    0.07770800
Ge   11.10808000   19.89001000   10.33587000     -0.223907   -0.73012700    0.11725600
Ge   12.46681000   16.14894000   19.25629000      0.031247   -0.19772400    0.45957500
Ge   11.07913000   23.36303000    8.93329000     -0.020802   -2.13258700   -0.45288000
Ge   15.88787000   22.49555000   18.65819000     -0.021549    1.60473400    0.64857900
Ge   20.50546000    4.87306000   11.66226000     -0.255410   -0.03299800   -1.01693000
Ge   20.55238000    8.27539000   19.49265000      0.000162   -1.13814500   -0.71573400
Ge   19.65103000   11.05535000   10.53847000      0.626789    0.54980900   -0.10301300
Ge   19.24604000   12.30413000   18.39101000     -0.601323   -1.27627400    1.04719600
Ge   15.10787000   21.04622000    8.98756000     -0.388254   -0.59055900   -0.61761300
Ge   16.75575000   16.10570000   18.67063000      0.919301   -0.11644700   -0.51676900
Ge   19.86978000    0.55822000   11.78414000      0.527351    0.36255100   -0.55608400
Ge   20.29963000    4.07715000    3.37880000      0.113725    0.41746000   -0.30660800
Ge   23.36678000    5.73578000    7.50134000     -0.009085    0.03828500   -0.38502700
Ge    3.08159000    3.47674000    3.80904000      0.196594   -0.33964700    0.23593900
Ge    1.34399000   10.50976000    9.48139000      1.485553   -0.44701800    0.73326100
Ge    1.76347000    8.33187000    0.50890000     -0.467212    0.06659900   -0.01434400
Ge   20.84105000   15.46724000    8.81936000     -1.066726   -1.18147300   -2.10176700
Ge    0.35047000   15.02810000   19.82467000      0.420298   -0.18468800   -1.74253000
Ge   18.61973000    1.03596000    9.20136000      0.457687    0.99884400   -0.65817100
Ge    0.84493000   20.84088000   19.77702000     -1.054792    1.60931000   -2.47411900
Ge    4.88056000    9.60867000    8.70172000      0.767023   -0.00469500    0.45416800
Ge    1.94965000    4.22867000   19.75960000     -0.313481    0.35131900   -0.48208900
Ge    2.15575000    8.80586000    6.17207000      0.067966    0.08923400    0.07711700
Ge    4.57678000   11.40410000   16.12147000      0.162783    1.07101200   -0.02590200
Ge    6.13540000   17.54180000    3.57720000      0.408350   -0.58846600   -0.37061200
Ge   23.56040000   17.51518000   17.40035000     -1.146758    0.33030600   -0.06328000
Ge    4.72272000   20.08558000    9.89002000      1.062133    1.28258200    0.77488000
Ge    4.59748000   21.49814000   18.24259000     -0.617755   -0.10645800   -0.45814800
Ge    9.04249000    1.58480000    7.50017000     -0.016411    0.22123400    0.51685600
Ge    7.55237000    8.28185000   18.73422000     -0.169084    1.11435300   -1.23632200
Ge    6.05480000   12.69543000    6.78053000     -0.988753    0.69312000   -0.02183300
Ge    8.16542000    8.58050000    1.91871000     -1.365895    0.18136900   -1.17500300
Ge    8.71768000   17.61476000    8.18057000     -0.747932   -1.03290100    0.57502400
Ge    3.63135000   18.62971000    0.21858000      0.513221   -0.09127800   -1.17754000
Ge   10.86053000   21.78252000    6.19391000      0.362615   -0.35923400    2.73584800
Ge    9.61029000    2.97520000   18.16309000     -0.381419    0.58381000    0.19186300
Ge   13.04396000    6.95814000    6.42449000     -1.195793    0.73462700   -1.50080300
Ge   14.99522000    9.18764000    0.25569000     -0.257651    0.40981300    0.53336600
Ge   15.96323000   13.69528000    6.22308000      0.419582   -1.10425600   -0.62466000
Ge   17.28787000   14.22212000   15.07787000     -0.021876    0.48809700    1.05999300
Ge   13.19906000   16.14705000    4.11007000     -0.278689    0.02614600    0.01067600
Ge   15.82340000   18.16155000   14.08992000     -1.052994   -0.70291300    0.00390300
Ge   14.91331000    0.82623000    8.87215000      0.437058   -1.04556200   -0.31858100
Ge   15.06055000    3.97622000    0.21301000      0.722573    0.77713100   -0.75401800
Ge   19.80460000    6.71734000    6.62890000      0.596873   -0.82671800    0.51987300
Ge   22.49412000    5.54352000   16.21719000     -1.318999    1.39479100   -0.84750500
Ge   20.34778000    9.24643000    7.97821000     -0.535731    0.60749300    0.11130600
Ge   21.75519000   13.77769000   17.89107000     -0.037184   -0.30344300   -0.60276600
Ge   18.83196000   18.53980000    6.85888000     -0.432380   -0.75000600    0.08637700
Ge   20.27653000   19.93929000   16.42662000      0.401447    0.24528600    0.37475200
Ge   19.19420000    1.21330000    5.29038000      1.565363   -0.35662000    1.61556100
Ge   19.17874000   22.66705000    0.90036000      0.222965   -0.15773100   -0.14355500
Ge    4.61824000    1.85301000   11.22999000      0.268702    0.31084400    0.80729600
Ge    5.61440000    3.16294000   18.02835000     -0.371978    0.09031200    0.32921100
Ge    3.38162000    6.35995000    6.08673000     -0.643219   -0.20031800   -0.92601700
Ge    2.24284000   10.22731000   12.44288000      0.414586    0.98813400   -0.01580500
Ge    3.56456000   18.41468000    6.77762000      0.492771   -0.24526200   -0.13102100
Ge    1.05927000   14.08842000   15.84815000     -0.361590   -0.09001700    0.07242800
Ge   23.12133000   21.22055000   11.13084000      0.938720    0.56705900   -0.25965700
Ge    2.24643000   23.16779000   14.03339000      0.213987   -0.05787100   -0.88697100
Ge    9.68994000    3.87122000    1.91428000     -0.122150   -0.09257200    0.00168300
Ge    8.95961000    1.03489000   16.62619000      0.402585    1.46387800   -0.29960400
Ge    8.29579000   10.86945000    5.85799000      0.567338   -0.57398500    0.42650500
Ge    7.89158000   10.11513000   15.97396000     -0.014483    0.04787200   -0.29169600
Ge    8.98921000   14.63910000    6.83045000      1.885610   -0.70004900   -1.14738900
Ge   16.26417000   10.15660000   15.96729000     -0.224218   -0.91675600    0.32025800
Ge    7.93266000   20.72664000    5.30926000      0.149379   -0.52336200   -0.00154500
Ge    7.94843000   18.90176000   16.62401000     -0.401247    0.50913900    0.24029400
Ge   14.29615000    2.98272000    5.58571000     -0.209416   -1.03343300    0.37903900
Ge   13.58996000    2.64463000   15.82046000     -0.007526    0.82961500   -0.31776900
Ge   15.20466000   10.71528000    4.89983000     -0.117066    0.39134600    0.15580400
Ge   15.15581000    6.79146000   15.16494000     -0.605893   -0.53715900   -0.05632000
Ge   15.99859000   14.46827000    2.84561000     -0.095117   -0.06079400    0.12037100
Ge   12.23229000   16.23980000   15.73045000     -0.369613    0.29034500    0.15713600
Ge   15.10799000   19.24567000   17.66675000      0.060924    0.16093400    1.35827900
Ge   10.26711000   21.74175000    0.33961000      0.368839   -0.24064600   -0.47250700
Ge   23.59643000    4.02681000    4.31309000     -0.828723   -0.08343700    0.28582200
Ge   22.50895000    2.82535000   14.79239000      0.192291   -0.81507400   -1.68364300
Ge   21.78678000    8.60057000    5.60374000     -0.874127    1.08738700   -0.49601400
Ge   20.89009000   10.51048000   14.41286000     -0.134377   -0.77868600   -0.42389500
Ge   22.21136000   17.34760000    6.12594000      1.237171   -1.21419600   -1.42061700
Ge   19.94737000   14.27462000   11.81018000      0.542124   -0.62339100    0.04713400
Ge   20.28396000   20.78836000    5.94861000     -0.450900    0.33438100   -0.62334000
Ge   21.06610000    0.47015000   17.25036000     -0.104805   -0.37817500    0.77167800
Ge    5.97095000    3.70813000    6.30715000     -0.094565    0.03423900    0.00594400
Ge    2.67846000    3.50753000   13.98395000      0.334653    0.22125300   -0.46808800
Ge    5.66123000   11.27533000    2.85468000     -0.524004   -0.78826700   -0.03851000
Ge    7.73854000    7.93275000   13.32491000     -0.370702    0.80604800    0.03071500
Ge    5.49233000   15.06374000    0.32746000     -0.958790   -0.63127000   -0.37185700
Ge    3.43081000   13.81829000   13.74983000      1.074624    0.06949800    0.44140400
Ge    5.72586000   22.11050000    5.40208000     -0.791072    0.69794300   -0.03443800
Ge    5.66330000   22.30104000   14.75067000     -0.400894    0.12389100    0.29045000
Ge   14.39609000    6.43206000    3.51441000      1.015474    0.77832100   -0.52497300
Ge   13.35225000    0.37950000   12.59380000      0.932678    0.35378700   -0.49669500
Ge   11.36113000   10.28306000    1.07388000     -0.391010   -0.25273200    0.24429800
Ge   13.79476000    9.97888000   11.00242000      0.034910   -0.07263900    0.69744700
Ge   11.64193000   13.62661000    2.23601000     -0.824868    0.53212800   -0.49720000
Ge    7.51405000   17.39649000   11.77371000      1.459517   -0.44926600   -2.16287100
Ge   12.56230000   22.02390000    1.76108000      0.288122    0.62196400   -0.30652400
Ge   11.39146000   23.32130000   13.91740000     -0.988729    0.04569300    0.38713100
Ge    0.79924000    1.17453000   18.62976000      0.314981    0.40335200   -0.10830300
Ge   13.03244000    5.32111000   12.36519000     -0.563736    0.97097700    0.22967000
Ge   17.48385000    4.66731000    1.38302000     -1.864203    0.21085100   -0.02747300
Ge   12.71409000    6.91091000    8.75669000      0.489202   -0.09471800    1.98723800
Ge   21.30980000   13.89592000    3.35440000     -0.315735    0.79172800    1.44081100
Ge   16.19065000   17.26364000    8.68104000     -0.810788   -0.41019900    0.85236200
Ge   17.90178000   20.28295000    4.05118000      1.290792   -0.26959100   -0.42479400
Ge   18.82333000   21.50177000   13.07322000      1.437510    0.33824200    0.08095700
Ge    0.04493000    0.36851000    3.34735000     -0.167952    0.68274100   -0.50221600
Ge   23.17726000    1.85490000    9.92111000      1.134928    0.67009500    1.46557200
Ge   23.63254000   11.02507000    1.77833000     -0.408064   -0.17585100    0.20201400
Ge   23.26173000    9.36798000   12.98584000     -0.984216   -0.09292500    1.04153500
Ge    3.17203000   14.11228000    2.40349000     -0.093368    0.04403300   -0.62851400
Ge    0.95998000   16.33840000   12.30287000      0.317720   -0.06304900    0.51641300
Ge   23.61564000   22.06707000    5.41072000     -0.234142   -0.93816300   -0.31354600
Ge   21.20802000   18.70084000   11.83827000     -0.515346   -0.32780300    0.48801100
Se    2.21101000   23.09794000   19.50830000      0.511580   -0.69123800    0.19641000
Se    2.20391000    1.50794000    9.26025000     -1.443670   -0.85295800   -0.29678500
Se    1.27256000    6.22920000    1.78591000      0.477878   -0.18133900    0.11448800
Se   23.02190000   10.17495000   10.70987000     -0.411112   -0.34547000   -0.19177800
Se   22.32257000   13.08775000    1.46433000     -0.013675   -0.09079200   -1.37594900
Se   23.57740000   14.09101000    8.21085000     -0.390220    0.97958700    0.60467900
Se    1.23455000   19.76561000    4.65977000     -0.086799    0.55080400    0.54549400
Se    0.11667000   18.42036000   11.39437000     -0.316581    0.79896700   -0.27700000
Se    6.68547000    1.75074000    2.46565000      0.053219   -0.15676100    1.04029700
Se    4.85831000    3.85073000   12.92106000      0.061291   -0.01428000    0.66738900
Se    9.00414000    5.15081000    4.18954000     -0.811594   -0.59233800    0.26531200
Se    7.91485000    8.92696000   10.75122000     -0.057745    0.83985100    0.11710800
Se    8.04283000   10.58805000    0.07135000      0.127166   -1.12577500    0.63433900
Se    6.46877000   15.38963000   12.07278000     -0.470866   -1.09073300   -0.13546100
Se    6.90095000   19.51276000    2.28440000      0.102019    0.56269100    1.02536600
Se    9.38779000   20.71471000   12.63075000      0.697396   -0.93653700    0.17164100
Se   11.61741000    1.23644000   18.66963000      0.281374   -0.20860300    0.97484700
Se   14.13947000    2.57633000   11.58192000     -0.736421   -1.34196100   -1.09133600
Se   11.89025000    8.49530000   19.24647000     -0.151329    0.24723200   -0.38171800
Se    7.92866000   11.74591000    8.40149000      1.107226   -0.71871700   -0.30946100
Se   13.57733000   14.18984000    0.60188000      0.059365   -0.09326500   -0.25338400
Se   11.73039000    9.11079000    9.71332000      0.056786   -0.23990600   -0.45572600
Se   14.82534000   17.52442000   19.44000000     -0.152057    0.46685100    0.17083800
Se   12.49042000   20.84180000   12.36209000      0.234041   -0.80079400   -0.57626800
Se   17.25469000    3.62680000    3.85545000      0.673558    0.68294400    0.02057800
Se   14.67594000    3.64536000   13.48046000      0.383041    0.94810800    2.05411500
Se   14.37907000    4.91178000   16.78802000      0.063378   -0.22230500   -0.62833500
Se   20.09450000    2.80225000   13.08887000     -0.143059    0.30972900    0.36685300
Se   20.36853000   10.12746000    1.02499000      0.383413    0.41957000    0.81547900
Se   16.31894000   19.01722000    7.21855000     -0.014395    2.00342700   -1.46907600
Se   19.42322000   18.70386000    0.33264000     -0.634960    0.20293700   -0.42806800
Se   19.66702000   19.74044000   10.14940000      0.046326   -0.00909600   -0.19712700
Se    3.47818000   23.08158000    3.77179000     -0.024860    0.12367800    0.30561000
Se    2.55721000    6.56797000   11.54370000      0.542738    0.37151100    0.02105300
Se    5.71983000   11.33943000    0.07732000     -0.203653   -0.03142500   -0.17389200
Se    4.77784000   12.98640000   11.04952000     -0.587632    0.07834300   -0.99563600
Se    3.53650000   13.03623000   19.87318000      0.502369    1.50675000    0.53657800
Se    3.33227000   17.12322000   12.01886000     -0.193642    0.19307900   -1.92565900
Se    5.16030000   20.56275000    0.57843000     -0.239366    0.59660100   -0.05890400
Se    5.60918000   19.58522000   12.36803000     -0.563566    0.93295100   -0.49492500
Se   11.19077000    5.97508000    2.50409000     -0.193140    0.25949000   -0.81771800
Se    7.12619000    2.31346000   11.25170000      1.102522    0.07445800   -0.22689400
Se   10.83810000   12.30908000   18.92500000     -0.360982    0.30641800    0.17275200
Se   10.72462000   12.03981000   11.34186000     -0.700883    0.54081400   -0.07922100
Se   11.24865000   16.19111000    2.42995000      0.458705   -1.05873400   -0.41914700
Se   11.73641000   16.31442000   12.97547000      0.334546   -0.56270800    0.33689900
Se   11.61453000   22.61046000   18.10522000     -0.650426    0.20247000    0.32240500
Se    9.87408000   23.09539000   11.56567000      0.298915   -0.06264600    0.60472100
Se   11.80439000    4.12928000   18.76737000     -0.242517    0.36116300   -0.34342500
Se   18.26820000    7.98723000    9.47472000      0.550071    0.13588600   -0.54473600
Se   16.51817000   10.22079000    2.84950000      0.607264   -0.00725300    0.15138100
Se   18.38636000   13.26556000   10.27814000      0.297324    0.08528900   -0.04891800
Se   19.24406000   14.83576000    2.31164000      0.309531   -0.02564800   -0.08785500
Se   14.07160000   16.13671000    8.47020000     -0.306687    0.42088900    0.03339600
Se   17.12341000    0.36317000    0.45885000     -0.185082   -0.08444300   -0.55858400
Se   16.71867000    0.42308000   10.59834000     -0.652873    0.17608500    0.13711000
Se    1.16060000    2.17917000    1.97512000     -0.401584    0.06582800    0.09820400
Se   22.65219000    4.37153000   10.16291000     -0.380009   -0.92365600    0.07108800
Se   22.53797000    5.25161000    2.39905000      0.074244    0.12160500   -0.44048000
Se   21.37261000   12.20696000   12.29975000     -0.980971    0.60482000   -0.52722800
Se   23.20898000   14.91529000    4.77076000     -1.260477    0.24071900   -0.18500800
Se   21.75009000   15.87533000   10.84453000     -0.138555   -0.19901700    2.61829200
Se   23.13013000   21.68952000    2.26518000      0.805357    0.40890900   -0.31651300
Se   22.06839000    0.00259000   15.04983000      0.037036    0.47362400   -0.17776300
Se    3.72244000    3.37648000    9.40419000      0.144134    0.49378900   -0.45130600
Se    4.12236000    6.19000000   19.00878000     -0.348007   -1.06242700    0.02280600
Se    3.97209000   11.98534000    8.58303000     -0.335065    0.70581600    0.77831400
Se    4.69393000    7.12730000   14.65005000     -1.465663   -0.64711300   -1.21332700
Se    7.38700000   18.33749000    6.18962000     -0.470492    0.86519600   -0.65894800
Se   22.00521000   16.02244000   18.86520000     -0.198169    0.56877000    0.35999400
Se    2.16446000   21.37826000   11.93641000     -0.902523    0.46367100   -1.10670300
Se    2.69424000   19.70997000   17.93286000     -0.211560    0.37634200    0.15536400
Se    7.68571000    3.64635000    7.99350000      0.689350   -0.74590900   -0.00173100
Se    5.61666000    4.51511000    0.93504000      0.065884    0.00657300   -0.63084200
Se    5.72361000   10.60455000    5.52393000     -0.745531   -0.30976900    0.40960600
Se    4.05902000    9.41162000   18.33715000     -0.223901    0.88766700   -0.35237100
Se    6.41580000   18.24661000    9.62762000      0.608921   -0.45909000    0.27124100
Se    5.64249000   15.92813000   17.85794000      0.045810   -0.55690700    0.32797400
Se    9.36368000   19.85184000    8.37544000      0.264355    1.16632000    0.02635000
Se    7.92792000    2.57720000   19.83431000      1.048284    0.37625900   -0.02494500
Se   14.62119000    3.00653000    8.18500000     -0.364790    0.54776700   -0.35111800
Se    8.30499000    4.62240000   16.41802000      0.246024   -0.54788200    0.32740600
Se   11.28983000    4.94158000    8.80724000     -0.125717    0.69253500    0.68616500
Se   18.74202000   10.68442000   16.19009000      0.092191   -0.66185400    0.02075000
Se   12.59907000   19.85010000    8.48079000      1.208153    0.43169000   -0.26592400
Se   16.17138000   16.39352000   16.22632000      0.299111   -0.82711600   -0.23838600
Se   15.37612000   22.98311000    6.78748000      0.523064    0.69019500    1.06334700
Se   18.99924000    3.72686000   16.63361000     -0.618600   -1.66735300   -0.14230700
Se   17.84690000    4.27547000   10.68484000      0.453732    0.11369200    1.08657300
Se   23.50068000    3.56407000   16.80014000      0.681757   -0.23272000    1.71256300
Se   19.31621000    8.57569000   12.58246000      0.871871    0.21022400    0.91446000
Se   20.39239000    8.76006000   16.33641000      0.135183    0.75075700    0.27735700
Se   16.04678000   19.05644000   10.47271000      0.579277   -0.25894600    0.74455100
Se   19.09124000   14.25993000   17.16668000     -0.826926    1.19550100   -1.11871100
Se   17.94939000   23.22944000    7.24201000     -0.179756   -0.54619200   -0.63293400
Se   17.64777000   20.76024000    1.52615000     -0.151662   -0.80117600   -0.91471300
Se    4.97074000   21.96759000    8.31793000      0.324238    0.25490500    0.59606900
Se    3.67983000    3.03984000    1.23759000      0.575556   -0.12679200    0.26023100
Se    7.11767000    7.09449000    9.60391000     -0.398104   -0.73691200   -0.25189100
Se    4.48856000    8.27644000    0.50178000      0.725164   -0.44355900    0.34967300
Se    4.70314000   16.42603000    5.33020000     -0.396046   -0.87022000    0.58520600
Se    7.15333000   12.25357000   16.85468000     -0.354136   -0.67369400    0.15734900
Se    2.91687000   18.88473000    9.26263000     -1.300641   -0.97032800   -0.86140100
Se   21.58977000   20.02611000    1.87477000     -0.747758   -0.46116100   -0.46350100
Se    8.34774000   22.75449000    7.59082000      0.751974    0.54358200   -0.32812300
Se   13.05274000    4.38006000    3.15909000     -1.186638   -0.94454700   -0.39268000
Se   10.76281000    1.86068000    9.39263000     -1.083595    1.71381100    0.01111000
Se    8.22879000    6.57749000    0.30919000      0.578043   -0.34543100    1.09822600
Se   11.17763000   13.81383000    7.41974000     -0.795093   -0.94121700    0.06816300
Se    9.37313000   13.62102000    0.54201000      1.393767   -0.42429500   -0.32012900
Se   13.30394000   23.17551000   10.21540000      0.521195   -0.05462200    0.09058800
Se   15.89620000   12.08595000   17.19749000     -0.550653    1.26251700   -0.22054200
Se   17.95697000    3.20079000    6.98839000      0.533093   -0.07805800    0.62269200
Se   15.09725000    3.18938000    2.50976000      0.122949   -0.56322200    0.65585600
Se   16.25336000    8.73826000    8.53680000     -0.846580   -0.66666000    0.30324700
Se   15.04755000    8.34676000   17.00458000      0.294505    0.24744200    0.56861700
Se   15.02714000   14.01858000    8.26301000     -0.760757   -0.23895800    1.88775000
Se   16.76158000   12.24535000   19.67822000      1.369886   -0.00097200    0.13966300
Se   13.55715000   19.88376000    2.83703000      0.571774   -0.38720900   -0.36619400
Se   19.44543000   22.35944000   17.18685000      0.001540   -0.67107900    0.32800000
Se   22.62179000    0.97832000    7.86716000     -0.431564   -0.20417300   -1.53767400
Se    0.71414000    0.71967000   15.49929000     -0.529783    0.28656600    0.60181800
Se   21.56218000    7.33864000    8.70779000     -0.068327   -0.49793900    0.27657100
Se   23.06659000    7.89059000   16.60620000      0.062314   -0.16038400    0.28147700
Se    0.28106000   10.94909000    7.43398000     -0.860315   -0.88573800   -1.15201300
Se   23.14139000    8.34123000   18.97165000     -0.563479    0.32614100   -0.15351700
Se   21.64733000   17.73363000    8.29621000     -0.359349    0.53069200    0.95145500
Se   18.82163000   18.11315000   17.93981000     -0.076586   -0.05080900    1.23269700
Se    1.33112000   22.17142000    9.54524000      0.040178   -0.30416600    1.18276700
Se    2.35415000    1.54338000   12.38563000     -0.401502   -1.13573100    0.75001000
Se    3.00396000    8.09520000    8.69541000     -1.367684   -0.04072800   -0.64222500
Se    2.35489000    7.52743000   17.88994000      0.363080   -0.00229500   -0.16799200
Se    1.41962000   15.86058000    8.65546000     -0.053936    0.38643100   -0.01968800
Se    0.44248000   12.91996000   18.64122000      0.222789    0.10317500   -0.07666300
Se    3.69736000   20.25019000    4.99386000     -0.433296   -0.11586700    0.32026000
Se   22.67819000   19.69843000   18.00822000     -0.080128   -0.03937500   -0.42838400
Se    7.15314000   23.43977000    3.83411000      0.180105    0.44605500   -0.27291200
Se    5.50221000    0.72678000   18.81667000      0.711144    0.12473600   -1.92661900
Se   10.75835000    6.94007000    5.26177000      0.881249   -0.13736800    0.96275100
Se    6.24950000    8.08108000   15.93009000      1.582706   -0.00863800    1.03149000
Se    7.50430000   14.93457000    8.42747000     -1.305998    0.90121100    1.60217700
Se    7.61070000   18.62211000   13.67208000      0.771421    0.70782000    1.71826600
Se    7.93851000   16.19718000    2.39218000     -0.337289   -0.35038100    0.17114700
Se    8.33608000   14.55736000   14.62005000      0.367061   -0.02509900   -0.22052100
Se   15.53980000   20.99038000    4.19189000     -1.195787    0.16009300    1.08947100
Se   14.09024000   22.49712000   15.87127000     -0.115510    1.16428900   -0.62668200
Se   13.40321000    8.83368000    4.77076000      0.154509   -0.02677000    0.37708600
Se   10.19129000    8.01546000   13.45182000      0.559571   -0.69847200    0.04933100
Se   14.13954000   13.25589000    4.71832000     -0.045797   -0.44715600   -0.76411500
Se   13.85757000   15.32209000   14.28522000     -0.143940    0.29743200   -0.59092500
Se   12.39042000   18.51417000    4.21654000     -0.841777    0.64081600    1.29545700
Se   16.87118000   20.85812000   17.27059000      0.682232   -0.34551700    0.02750800
Se   17.29227000    1.17111000    4.01009000     -1.316678    0.41718300   -1.27526300
Se   19.75015000    2.25815000   18.37495000      0.335856   -0.03215600   -0.33125300
Se   20.26631000    7.50115000    3.81593000     -0.133403    0.32564900    0.14135400
Se   19.96267000    5.72635000   16.77072000      1.306484    1.18877000    0.13931600
Se   20.13713000   12.08678000    4.47891000      1.075181   -0.53163900    0.00347000
Se   16.89559000   11.44812000   13.13729000     -0.027064    1.04637800   -0.33063000
Se   19.67799000   17.71011000    3.79219000     -0.182125    0.01522000    0.44606100
Se   21.32044000   20.54454000   13.60817000     -0.786024    0.13008300   -0.26938300
Se    5.39425000    5.93380000    7.21017000      0.585269   -0.28167500    0.43752700
Se    3.09935000    3.60642000   17.39248000      0.770750    0.17618600    0.03966600
Se    3.26284000   10.20437000    2.50076000      0.004959    0.60828600    0.59087900
Se    4.97920000   11.60306000   13.60963000     -0.627728    0.82386700    0.50533100
Se    3.85146000   13.96531000    5.67444000      0.123870    0.64829900    0.02723700
Se    1.85673000   16.44084000   18.02327000     -0.227042   -0.29182300    0.63463200
Se    1.77657000    0.24494000    5.25524000      0.725442   -0.16021600    0.14773800
Se    3.86441000   19.69994000   13.97776000      0.008857    0.64095700    0.53086500
Se   12.06597000    0.22456000    6.17243000      0.466710    0.45652900    0.21427600
Se    6.99170000    2.73453000   15.83028000      0.411241    0.43912400   -0.12471300
Se   10.37278000   11.37215000    7.66146000     -0.103050    1.03745400    0.17178800
Se   12.33993000   13.70355000   16.84053000     -0.251299   -0.05417000    0.52896900
Se    9.85982000   16.83959000   11.01915000     -0.278433    0.92874900   -0.30213700
Se   11.55456000   19.27622000    0.47546000      0.596841    0.91377600   -0.53435000
Se   10.06793000   21.50144000    4.14664000     -1.128036   -0.34346900   -2.37281500
Se    8.18730000   20.82526000   18.93821000     -0.327470    0.44164200   -0.69127600
Se   14.70916000    5.32240000    5.97420000      1.205364    0.87277700    0.26114100
Se   14.43251000    6.61607000    0.35710000     -0.454014   -1.22271400    0.47729700
Se   16.11493000   11.19893000    7.25199000     -0.008512    0.33268700   -1.11535100
Se   17.29405000    6.60348000   14.22831000     -0.258192   -0.14422000   -0.26557200
Se   17.72754000   14.43657000    4.90267000      0.291009    0.21701600   -0.43858600
Se   13.61752000   19.04255000   16.00994000     -0.671572    0.04525600   -1.55631400
Se   15.82875000   22.87122000    2.72253000      0.316324   -0.71076000   -0.69526100
Se   17.78070000    3.82034000   13.20733000      0.320919    0.15591600   -0.58934600
Se   21.45361000    4.54582000    6.37769000      0.373016    0.43433900   -0.42781700
Se   23.26784000    5.61259000   13.73955000      0.324036   -0.96195300    1.10110900
Se   17.60179000    9.82881000   11.49873000     -0.223910   -0.13701300    0.13879700
Se   21.68789000   14.77163000   15.30868000      0.401625    0.33148000    0.12593300
Se   17.72712000   15.93915000    7.62751000      1.483950    0.11403000   -0.05154200
Se   22.41774000   17.06969000   14.94579000      0.274738   -0.68152100    1.05923400
Se   20.92174000   23.22612000    8.48856000     -0.494986   -0.21356900   -0.10538700
Se   22.60593000   23.43152000   18.97707000     -0.715778   -0.12808900   -0.17101500
Se    4.23856000    2.19480000    7.11528000      0.370532   -0.21508900   -0.55866800
Se    3.93465000    0.19651000   15.64256000      0.940250   -0.26107800   -0.06034900
Se    4.44853000    5.64231000    3.72226000     -0.092312   -0.06545900    0.14116500
Se    4.35313000    9.25604000   11.53241000      1.196232   -0.11702000   -0.82484800
Se    1.84334000   12.09570000    3.13884000     -0.373823   -0.78100400    0.47917900
Se    3.47119000   14.03588000   16.59409000      0.599187   -1.22693000   -0.98255300
Se    4.24016000   16.66114000    1.85192000      0.141269    0.22648000   -0.27154500
Se    4.04207000   16.47732000   14.07333000     -0.049645   -1.13978400    1.02530500
Se   11.31956000    1.59443000    1.45276000      0.152481   -0.39006700   -0.30209400
Se   10.88251000    1.96669000   15.03800000      0.077738   -0.62224400   -0.08316700
Se    9.95157000    8.73623000    3.29945000      0.996392    0.99033400   -0.01327900
Se    9.73059000    8.84699000   16.98290000     -0.926607    0.19280200    0.22960900
Se    7.98792000   13.23923000    5.10495000      0.171182    0.58142100   -0.73900400
Se   12.57931000   11.45510000   12.63986000      0.434538   -0.42987200   -0.24429800
Se    9.19047000   18.74817000    2.33450000     -0.345352   -0.40241400    0.58873900
Se    7.93266000   22.92939000   15.72289000     -0.475273   -1.74238500   -0.76493800
Se   18.80512000    5.04412000    8.33059000     -0.356192   -0.56305900   -0.63792800
Se   14.84487000    0.87297000   17.17595000      0.335297   -1.43672100   -0.14223800
Se   17.02924000    6.90068000    2.15393000     -0.142530   -0.06340200    0.35264700
Se   13.13735000    7.46970000   13.87667000      1.046504   -0.67453100   -0.04719500
Se   18.15186000   12.30429000    1.98523000     -0.576671    0.19978700   -0.01867800
Se   19.15413000   17.69080000   13.80169000      0.763617    0.08496700   -0.04760000
Se   14.86300000   16.83764000    2.55843000      1.347209   -0.57265900    0.09226100
Se   17.29842000   20.09258000   14.03848000     -0.503569    0.43014400    0.98999100
Se   21.91842000    1.99423000    4.07945000      0.019876   -0.20567900    0.22913500
Se   22.55628000    0.05959000   11.71611000     -0.325096    0.55986900   -0.05437900
Se    0.10771000    7.54995000    5.10230000      1.211802   -0.63660100    0.55237900
Se   21.89459000    7.03886000   12.58537000     -0.474782    0.83488800   -0.29031700
Se    1.16836000   17.91063000    6.76439000     -1.010108   -0.42622000   -0.11734100
Se    0.98809000   11.53180000   14.49508000      0.033595    0.25391800   -0.13175700
Se   22.19623000   20.82574000    7.35301000      0.699447    0.13057500   -0.04265000
Se   18.11789000   21.75809000   10.69655000      0.741240   -0.10449000   -0.16095300
Se    1.85860000    4.22097000    6.28002000      0.039637    0.37408900   -0.14538500
Se    2.06385000    4.37984000   11.10066000     -0.377573    0.23774000    0.54833400
Se   22.26971000   10.74358000    4.13962000     -0.394283    0.44929100    0.73972200
Se    1.69158000    8.45948000   13.99413000     -0.043743   -0.32950800   -0.11385800
Se    0.95766000   15.73455000    1.96501000      0.589349    0.05500200    1.15924900
Se    1.40106000   16.96865000   14.83555000     -0.200652   -0.29642300   -0.90085200
Se    2.06344000   19.83980000    1.40154000      0.395117   -1.16626900    3.62552600
Se    6.44642000   18.09517000   18.43823000      0.138280    0.09386800    0.30693900
Se   10.62518000    2.01399000    5.66939000     -0.127854    0.35875000   -0.41814500
Se    8.49081000    2.68315000   13.10857000     -0.068753   -0.24047700   -0.09638400
Se    6.02739000    8.68757000    3.12947000      0.602586    0.09646200   -0.38002700
Se    7.85062000   10.50838000   13.50307000      0.302020   -0.46437300    0.60249000
Se    6.62994000   13.83516000    2.06918000      0.611950    0.75694800    0.16642300
Se   10.16776000   14.05268000   12.81862000      0.090531   -0.08298300    0.36650500
Se    6.05656000   23.60245000   10.21924000     -0.629746   -0.03322000   -0.53358300
Se    5.22467000   19.03353000   16.25210000      0.932786    0.42368300    0.30888000
Se   13.52348000    0.71570000    2.38352000     -0.808134   -0.85984700   -0.42051100
Se   10.40072000    5.32246000   13.34444000     -0.038172    0.42462200   -0.64764700
Se   13.58355000   10.30020000    2.15257000     -0.294924    0.10744300   -0.79659400
Se   14.99583000   10.27547000   13.91601000      0.299402   -0.16819200   -0.24104500
Se   10.26754000   16.60054000    6.61187000      1.035196    0.13393200   -0.61373300
Se   13.98550000   18.92113000   11.63815000     -0.459670   -0.17951600    1.12388500
Se   14.38156000   21.04768000   19.75062000     -0.440970   -0.22737500    0.13323800
Se   15.14977000   22.70898000   13.66550000     -0.141515    0.25004600    0.33037700
Se   19.66500000    4.57499000    0.88362000      1.832976   -0.44714400   -0.01121300
Se   14.99883000    6.83102000    9.91112000     -0.734976    0.41579000   -0.52963800
Se   21.77440000    8.05612000    1.99424000     -0.804124   -0.10760100   -0.28751400
Se    1.12206000   13.79487000   12.87843000     -0.337427   -0.31492000    0.49174400
Se   21.90370000   18.50974000    3.92221000     -0.119759    0.63354100   -0.24353300
Se   18.21275000   15.83121000   12.85741000     -0.084646   -0.58069600    0.00643500
Se   19.71338000   22.12630000    3.64634000      0.019025    0.19682600    1.20504100
Se   19.32497000    0.06901000   14.09412000     -0.553437   -0.68539900    0.08061300
