384
23.69824000 23.69824000 19.89960000
Ge    5.32932000    6.99759000   12.12887000     -0.480528   -0.02759300   -0.29960400
Ge    6.76304000    4.12952000    3.90673000     -1.276088   -0.61664700   -0.37359900
Ge    1.75239000   12.91915000    7.16836000      0.246383    0.25733400   -0.40915400
Ge    9.46229000   12.58499000   15.48836000      0.005984    0.40998700   -0.26007000
Ge    4.81734000   15.62755000   10.17166000      0.130429   -0.31780500    0.62834000
Ge    9.08747000   18.69820000   19.87584000      0.395289   -0.95274000   -1.03018700
Ge    7.62514000   22.19472000   12.34441000     -0.831666    0.40883900    0.46700900
Ge    4.65747000    0.57326000    1.11267000     -0.918535    0.01551400    1.20652900
Ge    9.19124000    5.24733000   10.59988000      0.715896   -0.07957600   -0.27634500
Ge   12.01039000    6.24658000    0.38053000      1.205744    0.50126500   -2.72738300
Ge   10.07899000    7.71242000   10.90041000     -0.584765   -1.04647200    0.41208500
Ge   13.52909000   12.41234000   18.68637000      0.001380   -0.05028700    0.08329600
Ge   11.13227000   19.85352000   10.25137000     -1.455736   -0.37986000    1.34032000
Ge   12.48399000   16.14374000   19.32215000     -0.215257   -0.15969800    0.49414400
Ge   11.12149000   23.31823000    9.02154000     -0.219099   -0.86881300   -0.31121900
Ge   15.80915000   22.49313000   18.70454000      0.598965    1.42053000    0.06213500
Ge   20.50976000    4.82221000   11.57514000     -0.116522   -0.01131800   -0.77910300
Ge   20.61171000    8.14905000   19.58904000     -0.063314   -0.15081900   -0.12806200
Ge   19.65438000   11.16856000   10.49036000      0.337181   -0.12475200   -0.21937700
Ge   19.21691000   12.18132000   18.29482000     -0.303174   -1.04694500    1.00489400
Ge   15.03688000   20.93003000    8.91783000      0.196992   -0.27185200   -0.16795600
Ge   16.84869000   16.05042000   18.73514000      0.653246    0.23485600   -1.11342300
Ge   19.89700000    0.56482000   11.68255000      0.479717    0.50264400    0.17513100
Ge   20.37090000    4.19431000    3.45813000     -0.417374    0.04518200   -0.03340400
Ge   23.39458000    5.76344000    7.44476000     -0.029412    0.00624800   -0.21068500
Ge    3.28767000    3.41589000    3.97845000     -0.013023   -0.29488800    0.13359200
Ge    1.36215000   10.53439000    9.41857000      1.436754   -0.61520300    0.75604100
Ge    1.77585000    8.47972000    0.55143000     -0.123853   -0.47122300   -0.05226300
Ge   20.84336000   15.39851000    8.78372000     -0.326107   -0.26082200   -1.27194600
Ge    0.39261000   15.07788000   19.86773000     -0.239489   -0.07029000   -1.88208500
Ge   18.61143000    1.09134000    9.21414000      1.128122    1.12750000   -1.50826300
Ge    0.82746000   20.90164000   19.62426000      0.461122    0.41256700   -0.12398000
Ge    4.90298000    9.66563000    8.85042000     -0.115174   -0.52702600    0.29004700
Ge    1.91814000    4.24044000   19.68452000     -0.000548    0.20982900   -0.14833600
Ge    2.12121000    8.91041000    6.14208000      0.324812   -0.08052800    0.45079200
Ge    4.59720000   11.25208000   16.14575000      0.236822    1.30307800   -0.49911400
Ge    6.24346000   17.45773000    3.51427000      0.161218   -0.53170000   -0.29406500
Ge   23.57175000   17.72272000   17.33300000     -0.225553   -1.78971300   -0.29498500
Ge    4.71693000   20.09645000    9.90929000      0.145457    0.81223200    0.41685000
Ge    4.48668000   21.44035000   18.27158000     -0.167981    0.36825200   -0.04219700
Ge    9.01971000    1.53234000    7.51366000      0.187523    0.36145700    0.63750900
Ge    7.50584000    8.28550000   18.58693000      0.367247    0.64127200   -0.14324500
Ge    5.95074000   12.77604000    6.75358000     -0.479002    0.60056300   -0.02347900
Ge    8.12421000    8.56597000    1.87141000      0.495847    0.19809200   -1.08002800
Ge    8.69347000   17.46846000    8.17060000     -0.561653   -0.74491700    0.37589700
Ge    3.53522000   18.54255000    0.15625000      0.281057    0.23063400   -0.37477000
Ge   10.80470000   21.81531000    6.31603000     -0.525915   -0.79101100    0.82393700
Ge    9.62880000    2.91171000   18.14685000     -0.274173    1.93460700    1.68196700
Ge   13.01191000    7.09262000    6.36452000     -1.685007    0.74110000   -0.49102600
Ge   15.06399000    9.28576000    0.34908000     -0.154381    0.18776700    0.61080200
Ge   15.91755000   13.66635000    6.19188000      0.725594   -0.64281100    0.12281100
Ge   17.24553000   14.26093000   15.01285000      0.111947    0.56495700    0.97567500
Ge   13.16128000   16.23995000    4.04951000     -0.231125   -0.43218700    0.20857000
Ge   15.80806000   18.10870000   14.11551000     -1.421329   -0.49722900   -0.32526800
Ge   14.93162000    0.79730000    8.84568000      0.102640   -1.11771600   -0.52910200
Ge   14.99301000    3.91920000    0.33823000      0.662209    0.63654500   -1.63725100
Ge   19.89860000    6.58293000    6.61102000      0.510329   -0.25793000    0.24938900
Ge   22.47074000    5.57599000   16.15217000     -0.889923    0.53846900    0.03321000
Ge   20.23593000    9.38572000    7.90546000      0.096082   -0.29505900    0.46846200
Ge   21.76513000   13.77037000   17.84661000      0.158745   -0.09403500   -0.43163000
Ge   18.82679000   18.50001000    6.81202000     -0.120337   -0.65738400   -0.00864700
Ge   20.27576000   20.01822000   16.56110000      0.383053   -0.22346400   -0.28499900
Ge   19.18071000    1.15359000    5.39328000      0.475135   -0.18658700    0.71101200
Ge   19.17629000   22.70021000    0.91938000     -0.447344   -0.49477600    0.08572400
Ge    4.62759000    1.94493000   11.23816000     -0.178585   -0.47828700    0.81831200
Ge    5.71798000    3.11182000   18.07503000     -0.428695   -0.12391100    0.31326800
Ge    3.39993000    6.32809000    5.96363000     -1.021457    0.05366700   -0.57869700
Ge    2.20659000   10.20872000   12.40534000      0.258189    0.80875200   -0.00564700
Ge    3.73405000   18.38617000    6.73016000     -0.354535   -0.13390800    0.30137900
Ge    1.02200000   14.15308000   15.91574000     -0.321306   -0.02105600    0.17926700
Ge   23.14491000   21.11132000   11.13974000      0.968606    0.29838600   -0.18110700
Ge    2.22776000   23.18096000   13.86963000      0.594982    0.63379600    0.28741700
Ge    9.63809000    3.92314000    1.88400000      0.082405   -0.05608400   -0.26534400
Ge    9.00893000    1.16448000   16.71417000     -1.008092   -1.39341900   -2.20377900
Ge    8.23624000   10.90515000    6.03633000      0.175793   -0.36214900   -0.60315100
Ge    7.88496000   10.15682000   16.02471000     -0.005841   -0.34068600   -0.26106700
Ge    9.04810000   14.64968000    6.85837000     -0.618721   -0.05721000   -0.68753700
Ge   16.22481000   10.17952000   16.02225000     -0.200185   -0.70069700    0.56931600
Ge    7.87432000   20.74943000    5.27347000      0.762775   -1.00226700    0.08449900
Ge    7.99259000   18.85061000   16.57180000     -0.543199    0.53378400    0.43192400
Ge   14.27010000    3.02117000    5.68382000     -0.144243   -0.61165200    0.18532300
Ge   13.61576000    2.70232000   15.77623000     -0.014620    0.27609000   -0.45811700
Ge   15.27526000   10.78709000    4.91143000     -0.652868   -0.08989300   -0.46575800
Ge   15.04350000    6.82257000   15.27382000      0.522356   -0.92747700   -0.27722900
Ge   16.07741000   14.22599000    2.87229000      0.068827    0.52325500    0.07028000
Ge   12.32300000   16.26524000   15.71385000     -1.446586    1.28682000    1.11213800
Ge   15.19021000   19.27490000   17.73785000     -1.217904   -0.05680100   -0.75639000
Ge   10.30923000   21.84698000    0.31251000      0.156059   -0.48678400   -0.67941300
Ge   23.49422000    4.02456000    4.34238000     -0.540086   -0.17624100   -0.02122000
Ge   22.52589000    2.86051000   14.90353000      0.429408   -0.81417700   -1.66677500
Ge   21.82571000    8.51023000    5.67411000     -0.773509    1.09564500   -0.90448800
Ge   20.78296000   10.56593000   14.44033000     -0.087783   -0.96271800   -0.14309400
Ge   22.26971000   17.51086000    6.15767000      1.342767   -1.59887900   -2.42320000
Ge   19.92902000   14.24529000   11.69957000      1.303447   -0.24997300    0.00040000
Ge   20.29844000   20.75349000    6.01504000     -0.562116    0.29708600   -0.75332200
Ge   21.06470000    0.46708000   17.28670000     -0.118324    0.08859300    0.34190100
Ge    6.12137000    3.69144000    6.34928000     -2.028962   -0.39646500   -0.61097300
Ge    2.74630000    3.62578000   13.99248000     -0.997863   -0.22528200    0.01287500
Ge    5.64430000   11.25209000    2.86200000     -0.534617   -0.53503200    0.08185900
Ge    7.92578000    7.87445000   13.28204000     -3.416403    0.26747100   -0.20660100
Ge    5.64247000   15.04793000    0.30398000     -1.020647   -0.33702800    0.11046300
Ge    3.44039000   13.87532000   13.86767000      0.528363   -0.16580200    0.19621500
Ge    5.80633000   22.15874000    5.31921000     -1.412831    0.88256300    0.17161300
Ge    5.64308000   22.28602000   14.75729000     -0.408332    0.57674400    0.55519200
Ge   14.31310000    6.54593000    3.52492000      0.837821    0.27691900   -0.82325400
Ge   13.30319000    0.47713000   12.52398000      0.711478   -0.43951000    0.64287700
Ge   11.34384000   10.11413000    1.11625000     -1.005065    0.35926700    0.26044800
Ge   13.80282000   10.04784000   11.05468000      0.304331   -0.41781300   -0.03992900
Ge   11.64424000   13.75506000    2.12500000     -1.007629   -0.12404500    0.04903800
Ge    7.56099000   17.37136000   11.77396000      0.713309   -0.70374400   -1.39422700
Ge   12.56059000   21.99646000    1.78534000      0.284885    0.41693400   -0.03724400
Ge   11.25782000   23.43798000   13.91209000     -0.259348   -0.51623800    0.22703100
Ge    0.86173000    1.23092000   18.54905000     -0.398587   -0.41342200    0.20038500
Ge   13.06217000    5.40952000   12.28546000     -0.137864    0.42446000    0.46117400
Ge   17.51062000    4.56365000    1.35311000     -2.086248    0.22704600    0.04272700
Ge   12.75596000    6.93638000    8.75005000      0.470820   -0.78645800    1.26591400
Ge   21.33363000   13.95364000    3.36513000     -1.130216    0.73579500    2.55147400
Ge   16.16008000   17.14164000    8.66787000     -0.701404    3.44443100    1.48041600
Ge   17.94947000   20.27167000    4.04909000      1.102356   -0.10049500   -0.18561300
Ge   18.87016000   21.51060000   12.97799000      0.739256   -0.12915500    1.62215500
Ge   23.69675000    0.34948000    3.22458000     -0.164059    0.71746300    0.02137200
Ge   23.21069000    1.82428000    9.94409000      1.111630    0.96018300    1.30359100
Ge   23.62890000   11.02226000    1.79955000     -0.768123    0.04934100    0.16304700
Ge   23.18616000    9.39884000   12.98809000     -0.609175   -0.12045000    0.67743900
Ge    3.10968000   14.08393000    2.22358000     -0.008750    0.57085200    0.42180900
Ge    1.03870000   16.34843000   12.52805000     -0.450672    0.19864900   -1.03608000
Ge   23.56574000   22.02438000    5.48864000     -0.105655   -0.67514300   -0.63210900
Ge   21.08231000   18.63628000   11.92075000     -0.137896   -0.16603000    0.44971100
Se    2.35917000   23.21545000   19.52526000      0.189513   -0.79540300    0.07459600
Se    2.11630000    1.44953000    9.11151000     -1.019577   -0.39469300    0.09571200
Se    1.27223000    6.18866000    1.82617000      0.376763    0.17956600   -0.03412200
Se   23.04367000   10.24765000   10.62840000     -0.488233   -0.55769000    0.37420200
Se   22.35733000   13.17977000    1.55655000      0.533788   -0.60558400   -2.27873300
Se   23.55465000   14.06914000    8.25933000     -0.267780   -0.04733000    0.01595900
Se    1.20624000   19.74178000    4.70730000     -0.148439    0.57612700    0.44234600
Se    0.13988000   18.49129000   11.36807000     -0.460648    0.12184000   -0.10936900
Se    6.71838000    1.69656000    2.57175000     -0.571297    1.58524200   -0.18899000
Se    4.79079000    3.80828000   12.94975000      1.322387    0.62425300    0.25077100
Se    8.88401000    5.08561000    4.12097000     -0.022594   -0.16972300    0.29348300
Se    7.99818000    8.96387000   10.74510000     -0.436826   -0.10344500   -0.27041900
Se    8.06637000   10.56435000    0.14015000     -0.576966   -0.94093900    0.36730600
Se    6.53179000   15.30012000   12.05380000     -0.793231   -0.55151700   -0.27134700
Se    6.93592000   19.49011000    2.28892000      0.201240    0.56831700    0.80423000
Se    9.47827000   20.69675000   12.65711000     -0.261563   -0.14223700    0.00065600
Se   11.60339000    1.19969000   18.60132000      0.481316    0.14252800    1.02937700
Se   14.14842000    2.53567000   11.59197000     -0.336813   -0.32328300   -0.85576400
Se   11.83507000    8.60604000   19.18351000      0.104097   -1.04669000   -0.11441900
Se    7.96084000   11.68004000    8.41944000      0.507732   -0.22584800    0.11227900
Se   13.63321000   14.22414000    0.67864000      0.458355   -0.07101900   -0.90086600
Se   11.68464000    8.94683000    9.74000000      0.800380    0.89322400   -0.66981600
Se   14.82557000   17.45773000   19.35269000     -0.043326    0.32389800    0.61501100
Se   12.57545000   20.79943000   12.24280000      0.270829   -0.97115700   -0.36967600
Se   17.31386000    3.62995000    3.71853000      0.668255    0.51682500    0.61738600
Se   14.74163000    3.61021000   13.53050000     -0.042884    0.96161200    1.06926100
Se   14.31989000    4.81049000   16.80540000      0.257468    0.35590000   -0.46874300
Se   20.17582000    2.79731000   13.10784000     -0.147665    0.33880700    0.08291900
Se   20.45340000   10.22169000    1.05377000      0.472835   -0.53051400    0.03508700
Se   16.42398000   19.07886000    7.20074000     -0.605845    0.76302800   -0.37301200
Se   19.41887000   18.70864000    0.26604000     -0.486961    0.15711800    0.15641400
Se   19.71425000   19.72356000   10.14654000     -0.071074    0.11524400    0.00895700
Se    3.42159000   23.12267000    3.75554000      0.142052   -0.09587200    0.06657500
Se    2.50741000    6.61535000   11.55931000      0.783500    0.88003100    0.15418900
Se    5.64178000   11.37356000    0.15896000      0.437390   -0.19488600   -0.49727700
Se    4.73191000   13.07149000   11.04764000     -0.560728    0.01844600   -0.89381500
Se    3.52018000   13.21301000   19.89883000      0.674296    0.64359900   -0.55704800
Se    3.35126000   17.18753000   11.99593000      0.147878   -0.25424500   -0.87175000
Se    5.09932000   20.46983000    0.69071000     -0.578245    0.39214200   -0.34024400
Se    5.60908000   19.60991000   12.37727000     -0.711274    0.98325200   -0.30969900
Se   11.13979000    6.07615000    2.42631000     -0.824008    0.19638400    1.10094500
Se    7.04861000    2.39883000   11.32944000      1.501984   -0.03882400   -0.55089300
Se   10.98115000   12.27742000   18.89867000     -0.862467    0.48177100    0.50250000
Se   10.74170000   12.02603000   11.30192000      0.007899    0.44965100    0.44962500
Se   11.26943000   16.23164000    2.39712000      0.326492   -0.53196700   -0.63085300
Se   11.67947000   16.38565000   12.95088000      0.123320   -0.78371800    0.22011300
Se   11.64568000   22.60909000   18.01929000     -0.704359   -0.03269700    0.36568400
Se    9.89858000   23.03390000   11.60643000      0.371340    0.11632100    0.23755500
Se   11.69046000    4.15977000   18.82147000     -0.145442    0.74943300   -0.04637600
Se   18.41948000    8.03785000    9.43833000      0.647578   -0.03869000   -0.52658400
Se   16.52207000   10.19182000    2.94908000      0.654507   -0.29894200   -0.08658500
Se   18.36780000   13.29587000   10.17387000      0.069024    0.06860900   -0.22462400
Se   19.17402000   14.82213000    2.35077000      0.587506    0.14648600   -0.16437900
Se   14.11271000   16.21183000    8.51158000     -2.008575   -0.29587800   -0.06306000
Se   17.01510000    0.39623000    0.41109000      0.239578   -0.36915400   -0.22984000
Se   16.76144000    0.39870000   10.46454000     -1.304575    0.09296900    0.90467100
Se    1.15474000    2.13815000    1.95613000     -0.312723    0.20687900    0.15346000
Se   22.70898000    4.33280000   10.17462000     -0.368754   -0.94902000    0.08696400
Se   22.53939000    5.30980000    2.31758000      0.535513    0.23108200   -0.37912900
Se   21.24757000   12.15008000   12.29582000     -0.797385    0.70087500   -0.55152800
Se   23.17633000   15.00592000    4.84485000     -1.181983    0.15909500   -0.25391400
Se   21.77178000   15.89400000   10.85521000     -0.547658   -0.50154600    1.60375300
Se   23.14934000   21.70728000    2.16650000      0.640835    0.16199600   -0.13336200
Se   22.10442000    0.01977000   15.04876000     -0.325428    0.41156300    0.02952200
Se    3.65455000    3.30113000    9.41328000     -0.011116    0.50694800   -0.93478600
Se    4.02863000    6.11200000   18.92677000      0.248975   -1.04574600    0.51482800
Se    3.86037000   12.02662000    8.53575000     -0.090446    0.46068400    0.90427600
Se    4.74872000    7.11676000   14.56949000     -0.766634   -0.05876400   -0.02826900
Se    7.37962000   18.25517000    6.11509000     -0.532658    0.98259700   -0.47407800
Se   21.88619000   16.00475000   18.86236000      0.795213    0.28801400    0.40743500
Se    2.24457000   21.38348000   11.96774000     -0.785781    0.28113100   -1.04338300
Se    2.61816000   19.75720000   17.98177000     -0.297651    0.01542100   -0.31833400
Se    7.67034000    3.71054000    7.96756000      1.925882   -0.87735300    1.26433100
Se    5.66172000    4.52364000    1.03558000     -0.030783   -0.04595400   -0.50448200
Se    5.59670000   10.64543000    5.50305000     -0.486221   -0.01472700    0.50438000
Se    4.08610000    9.46117000   18.23805000     -0.189469    0.55861000    0.36434500
Se    6.44406000   18.26021000    9.76999000      0.354138   -0.26374800   -0.29929900
Se    5.59024000   16.08282000   17.89498000     -0.377427   -1.86460200   -0.29004200
Se    9.34018000   19.71497000    8.28580000      0.388106    1.33694900    0.05041000
Se    7.90550000    2.62495000    0.01113000      1.077064    0.22863800   -0.50815700
Se   14.60172000    2.97166000    8.20695000     -0.328370    0.91117800   -0.11529400
Se    8.26770000    4.46592000   16.44630000      0.815044    0.72430800    0.50727700
Se   11.35437000    4.87124000    8.83687000      0.066343    1.02468100    0.64813700
Se   18.71642000   10.73613000   16.14499000     -0.044833   -1.04640500   -0.16727700
Se   12.63135000   19.85979000    8.58412000      1.797477   -0.04113400   -2.09862200
Se   16.12855000   16.49600000   16.06763000      0.971448   -1.34571400    0.80216100
Se   15.30039000   22.92700000    6.84359000      0.459271    0.71536000    0.60140600
Se   18.97306000    3.70116000   16.62942000     -0.645023   -1.20500700   -0.32807300
Se   17.80283000    4.29103000   10.70910000      0.675961    0.00432200    1.17980000
Se   23.49465000    3.52306000   16.94747000      0.217978    0.75763400    1.23318800
Se   19.22432000    8.58636000   12.68365000      1.150648   -0.11246300    0.90014600
Se   20.44360000    8.69042000   16.34890000      0.241199    1.08038800    0.01173100
Se   16.17319000   19.07822000   10.54833000      0.110263   -0.50906400    0.25219100
Se   19.01246000   14.25077000   17.24491000     -0.772724    1.21284700   -0.98691200
Se   17.93810000   23.20185000    7.13321000     -0.048681   -0.28144600   -0.11508700
Se   17.64971000   20.58713000    1.57056000      0.220732   -0.03414200   -1.30754200
Se    4.98580000   21.96716000    8.30086000      0.291807    0.18042300    0.73268500
Se    3.69601000    3.08990000    1.22809000      0.361483   -0.03341500    0.50918600
Se    7.14999000    7.05613000    9.54323000      0.078615    0.21412800    0.15303600
Se    4.46261000    8.26288000    0.47914000      0.484106   -0.29829200    0.00358800
Se    4.64918000   16.46418000    5.32722000     -0.158145   -0.89424200    0.25851700
Se    7.06794000   12.27366000   16.85935000     -0.159813   -0.63394100    0.26747700
Se    2.82692000   18.85482000    9.23703000     -0.188986   -0.52997200   -0.58049700
Se   21.52895000   20.05041000    1.96306000     -0.419763    0.17413200   -0.98000400
Se    8.27675000   22.74309000    7.57829000      0.843295    0.48211300   -0.39601500
Se   13.08642000    4.29666000    3.22529000     -1.405226   -0.19630200   -0.09451800
Se   10.76531000    1.91567000    9.43289000     -0.983494    0.32377100   -0.34093000
Se    8.27560000    6.56428000    0.32266000      0.112340    0.45534000    0.48366300
Se   11.04050000   13.67937000    7.34204000      1.046095   -0.92478000    0.61239000
Se    9.43873000   13.79726000    0.59593000      1.460895   -0.80130700   -0.72826800
Se   13.35798000   23.18420000   10.28037000      0.433880   -0.29778400   -0.43942100
Se   16.04490000   12.12243000   17.26753000     -1.036769    1.00842800   -0.81245500
Se   17.96386000    3.22915000    7.01923000      0.409297   -0.28700200    0.46026300
Se   14.95368000    3.11317000    2.57590000      0.642261   -0.90348700    1.13095700
Se   16.41679000    8.74919000    8.50981000     -1.421421   -0.68915900    0.25695800
Se   15.01068000    8.36784000   17.15758000      0.423598    0.32580300   -0.02736800
Se   15.00870000   14.07050000    8.27732000     -0.805797   -0.61073600    1.43007600
Se   16.79100000   12.16841000   19.76528000      0.880649   -0.13113200   -0.36590300
Se   13.62647000   19.78613000    2.81349000     -0.025846   -0.23732800    0.00817700
Se   19.50959000   22.34266000   17.12652000     -0.633743   -0.42836700    0.50706500
Se   22.60247000    1.02350000    7.88520000     -0.700051   -0.44189900   -1.54112200
Se    0.69317000    0.67306000   15.54579000      0.043762    0.13743000    0.33563600
Se   21.46490000    7.30592000    8.69977000     -0.141772    0.16008200   -0.15970200
Se   23.03038000    7.97709000   16.56848000     -0.152881   -0.35626400   -0.09831300
Se    0.27470000   10.92437000    7.38574000     -0.697852   -0.81853700   -1.34886100
Se   23.13534000    8.31651000   18.87399000     -0.438929    0.33481800    0.55625700
Se   21.68864000   17.80100000    8.26106000     -1.011891   -0.26209500    2.27543800
Se   18.84248000   18.11908000   17.94479000     -0.390987   -0.29294200    0.90998900
Se    1.40132000   22.06466000    9.60489000     -0.126134   -0.23567900    1.04282500
Se    2.33629000    1.58450000   12.40121000     -0.340053   -0.82546400    0.53935400
Se    2.97518000    7.99669000    8.66252000     -0.642318    0.75005500   -0.81919000
Se    2.47875000    7.47901000   17.85152000     -0.579868    0.47238700   -0.60460700
Se    1.30388000   15.81541000    8.63688000      0.506108    1.03509400    0.14707200
Se    0.54648000   12.91946000   18.69878000     -0.395764    0.39195000    0.00081000
Se    3.63884000   20.25367000    5.06480000     -0.168357    0.07498200    0.15383300
Se   22.57629000   19.66797000   17.99984000     -0.537362    1.18170700    0.19512200
Se    7.15783000   23.53773000    3.72392000      0.938787   -1.36385600    0.86722100
Se    5.51878000    0.66372000   18.88386000      0.779802    0.15509000   -1.56763300
Se   10.73164000    7.02037000    5.33958000      0.787802   -0.05998700    0.84035000
Se    6.37522000    8.05710000   15.97424000      0.500597   -0.51491200    0.16064500
Se    7.46642000   15.09435000    8.52202000     -0.049549    0.49199700    0.07243400
Se    7.56660000   18.57694000   13.69700000      0.716481    0.67605100    1.51794300
Se    8.05173000   16.17840000    2.34526000     -0.353855   -0.44525400    0.12721400
Se    8.23386000   14.41497000   14.60880000      0.751867   -0.05010700   -0.45674500
Se   15.50064000   20.95237000    4.16027000     -0.945508    0.15378900    0.83004600
Se   14.15326000   22.53230000   15.80353000     -0.256504    0.88787700   -0.27076600
Se   13.36300000    8.91033000    4.80162000      0.302496    0.67806600    0.24248700
Se   10.17074000    7.91295000   13.45881000      3.029416    0.00225200    0.41338800
Se   14.24250000   13.26449000    4.61637000     -0.887912   -0.69190800   -0.85603800
Se   13.78170000   15.28298000   14.32640000      0.760127   -0.57851600   -1.69675200
Se   12.46335000   18.53128000    4.41794000     -0.372425    1.26764700    0.88139900
Se   16.98240000   20.91028000   17.29132000      0.024829   -0.12210100    0.47337300
Se   17.25843000    1.16169000    3.92363000     -0.120931    0.58292200   -0.52252900
Se   19.74894000    2.37169000   18.37742000      0.536422   -0.63587800   -0.09408400
Se   20.19907000    7.57781000    3.69987000      0.043782    0.05537100    0.65704700
Se   19.94706000    5.73175000   16.69023000      1.102867    1.03193100   -0.04885600
Se   20.13262000   12.05336000    4.50795000      1.302872   -0.14665800   -0.32536200
Se   17.00304000   11.40404000   13.10538000     -0.761210    0.71569500    0.04516400
Se   19.70983000   17.63273000    3.83736000      0.205010    0.24974300    0.34350100
Se   21.25192000   20.62090000   13.56595000     -0.592921   -0.08562100   -0.36983900
Se    5.34928000    5.88751000    7.14595000      0.855394   -0.31516500    0.71030400
Se    3.16903000    3.62050000   17.42663000      0.576079    0.12892400   -0.10971600
Se    3.21273000   10.13436000    2.51202000     -0.171482    0.73618000    0.55762000
Se    5.04974000   11.69314000   13.61757000     -0.694529    0.64907500    0.61896000
Se    3.84750000   14.02109000    5.73531000      0.044922    0.66647400   -0.15475200
Se    1.94976000   16.38555000   17.87024000     -1.098929    0.06859600    0.66591600
Se    1.76443000    0.25857000    5.20327000      0.121633   -0.16237600    0.19037600
Se    3.85993000   19.75270000   14.01649000      0.255441    0.59538300    0.31665100
Se   12.16142000    0.14610000    6.14998000     -0.312717    1.34171700    0.00636700
Se    6.94322000    2.72250000   15.77244000      0.031502   -0.57229800   -0.02505100
Se   10.28898000   11.32816000    7.68933000      0.274390    0.57132500    0.25784000
Se   12.36630000   13.71393000   16.78712000     -0.326604   -0.22691000    0.52931800
Se    9.71369000   16.71652000   10.98994000      0.629757    0.81630800   -0.49819100
Se   11.54249000   19.27108000    0.56198000      0.263529    0.86903300   -0.59298000
Se    9.94806000   21.43782000    4.09424000     -0.318785   -0.05703000   -0.36796900
Se    8.25681000   20.78118000   18.94980000     -0.185732    0.37505200   -0.43382700
Se   14.64219000    5.47220000    5.92510000      1.400412    0.08069900    0.29752400
Se   14.50491000    6.51740000    0.33213000     -0.380327   -0.50140300    0.57741800
Se   16.14350000   11.21523000    7.11150000      0.270325    0.44375000   -0.19872600
Se   17.27118000    6.51544000   14.16027000     -0.851361   -0.08068100    0.26010800
Se   17.69254000   14.48385000    4.91541000      0.280858   -0.03955300   -0.51896100
Se   13.58647000   18.98190000   15.77560000      0.966959    0.27335600    0.22281500
Se   15.77965000   22.87566000    2.66932000      0.247165   -0.70460900   -0.51423800
Se   17.88294000    3.84778000   13.26178000      0.004870    0.34783400   -0.82933500
Se   21.44352000    4.51059000    6.30414000      0.748866    0.32566600   -0.18045000
Se   23.37020000    5.57099000   13.86605000     -0.511540   -0.00135900   -0.39451900
Se   17.57899000    9.75952000   11.47364000      0.088199    0.30246300   -0.06776200
Se   21.64713000   14.91073000   15.32244000      0.045895   -0.63612500   -0.02399500
Se   17.58961000   15.90215000    7.68848000      3.485287   -1.30539400   -1.18290200
Se   22.31116000   17.07072000   14.84016000      0.501882    0.22829300    0.90841700
Se   20.84211000   23.27591000    8.45874000     -0.310287   -0.02034000   -0.22078800
Se   22.46595000   23.40635000   19.03815000      0.499025    0.54315500   -0.11585500
Se    4.29072000    1.98230000    7.06531000      0.819695    0.49593900   -0.64066700
Se    3.90185000    0.22361000   15.74695000      0.625903   -0.82210800   -0.85503800
Se    4.38556000    5.73674000    3.69875000      0.115771   -0.46412600   -0.01889900
Se    4.35577000    9.29241000   11.46109000      1.149606   -0.15315300   -0.34761400
Se    1.80959000   12.10766000    3.13826000     -0.062734   -0.89122800    0.45615200
Se    3.44067000   14.03331000   16.59283000      0.606822   -1.19344000   -0.89195200
Se    4.22093000   16.60350000    1.75648000      0.465959    0.18236200   -0.11399300
Se    4.12087000   16.47554000   14.13326000     -0.336736   -0.64809300   -0.00789200
Se   11.25697000    1.65293000    1.41244000      0.259376   -0.44056200   -0.22264800
Se   10.86448000    1.93321000   14.99439000     -0.160679    0.11556100    0.28176500
Se   10.05207000    8.89540000    3.30442000      0.070005    0.45054600   -0.74576800
Se    9.69031000    8.81867000   17.04692000     -0.809348    0.30164300    0.26053800
Se    8.02981000   13.33561000    5.10750000     -0.131573   -0.10198900   -0.39024500
Se   12.70120000   11.40807000   12.64947000     -0.738480    0.37057900   -0.14785500
Se    9.27999000   18.64174000    2.37521000     -0.531124   -0.28595700    1.15509600
Se    7.82957000   22.84722000   15.82897000      0.295685   -0.42102400   -0.21488900
Se   18.75553000    5.11943000    8.27529000     -0.620212   -0.78995100   -0.15342400
Se   14.90122000    0.86210000   17.09329000      0.171348   -1.27936800    0.15738500
Se   17.09858000    6.80069000    2.18980000     -0.309491   -0.01809400    0.29862400
Se   13.12849000    7.39229000   13.90242000      0.713351   -0.13436300    0.16707300
Se   18.09436000   12.24297000    1.83621000      0.092993    0.36092900    1.27635000
Se   19.20519000   17.78034000   13.80995000      0.280110   -0.60319200   -0.70330600
Se   14.82037000   16.87189000    2.53558000      1.649627   -0.74448500   -0.19812000
Se   17.24954000   20.03059000   14.12681000      0.594808    1.13633500    0.54932200
Se   21.80791000    1.92449000    4.05298000      0.167291   -0.10549400    0.06955000
Se   22.52251000    0.07174000   11.58958000     -0.269923    0.39453900    0.24250800
Se    0.21349000    7.47078000    5.20453000      0.432010   -0.58210100    0.33760200
Se   21.87123000    7.00110000   12.43622000      0.402840   -0.00051600    0.76171100
Se    1.12725000   17.92302000    6.73495000     -0.152632   -0.31435800   -0.07610900
Se    1.09998000   11.55151000   14.51305000     -0.189387    0.19106300   -0.27384500
Se   22.23526000   20.83452000    7.37684000      0.740150    0.14882800    0.20829200
Se   18.10687000   21.81701000   10.75023000      0.674076   -0.45108100   -0.95597200
Se    1.87244000    4.16310000    6.25211000      0.072721    0.43821400   -0.36130200
Se    2.06439000    4.47086000   11.11006000     -0.656738   -0.65019500    0.33997700
Se   22.29256000   10.79353000    4.21465000     -0.299593    0.20616900    0.71301500
Se    1.69435000    8.55933000   14.12007000     -0.075057   -0.18556500   -0.42219500
Se    1.00498000   15.79393000    2.03659000      0.329574    0.02847700    0.74839300
Se    1.43128000   17.03470000   14.76839000     -0.009871    0.01982200    0.69064100
Se    2.05178000   19.75370000    1.52123000     -0.588105   -0.16082800    0.85941900
Se    6.38453000   18.13377000   18.42736000      0.925638    1.10182900    0.81429300
Se   10.56125000    2.03021000    5.68755000      0.505933   -0.39852100   -0.19631200
Se    8.56985000    2.70647000   13.07375000     -0.321658   -0.25175000    0.01965400
Se    6.09980000    8.72079000    3.00706000     -0.177318   -0.18063900    0.54768100
Se    7.82800000   10.36646000   13.57297000      0.384692    0.28356800    0.25467200
Se    6.58549000   13.71478000    2.12303000      0.642938    0.62011600    0.11931700
Se   10.13073000   14.15717000   12.76971000      0.214051   -0.54131900    0.71172400
Se    6.02453000   23.63713000   10.21562000     -0.658858   -0.01284500   -0.50632000
Se    5.28374000   18.99886000   16.34674000      0.607656    0.63402300   -0.13226200
Se   13.54129000    0.68912000    2.31543000     -0.958107   -0.94027300   -0.29977000
Se   10.44925000    5.42440000   13.30767000     -0.045995   -0.26422700   -0.50791200
Se   13.50041000   10.18876000    2.12028000      0.371614    0.27584900   -0.41178500
Se   15.04494000   10.19040000   13.94498000      0.583229    0.13351700   -0.71987300
Se   10.34598000   16.62668000    6.58745000      0.508240   -0.21400700   -0.28132900
Se   13.99095000   18.88798000   11.51679000     -0.267336   -0.11539300    1.14382100
Se   14.26561000   21.07787000   19.78845000     -0.296586   -0.56454100   -0.14827300
Se   15.19674000   22.77128000   13.70151000     -0.374213    0.35464400   -0.32398000
Se   19.71510000    4.43305000    0.99723000      2.040708   -0.26921000   -0.59491600
Se   15.06448000    6.86629000    9.88219000     -0.650318    0.42349100   -0.57454700
Se   21.83521000    8.08441000    2.05956000     -0.723681    0.04772400   -0.56814600
Se    0.94883000   13.77548000   12.92104000      0.602087   -0.04222100    0.72981100
Se   21.96696000   18.65325000    3.94970000     -0.606961    0.06892000    0.16627900
Se   18.34498000   15.72810000   12.74195000     -0.340896    0.69989600    0.89820800
Se   19.76797000   22.14302000    3.65688000     -0.128939    0.13332600    1.22863900
Se   19.35433000    0.09868000   14.07398000     -0.581239   -0.89858600   -0.64664600
