384
23.69824000 23.69824000 19.89960000
Ge    5.21084000    6.93303000   12.13513000     -0.157678   -0.06333100   -0.91828100
Ge    6.71055000    4.03653000    3.94831000     -1.563549   -0.53967600   -0.56662100
Ge    1.84739000   12.90441000    7.05606000     -0.974730    0.03622100   -0.04891300
Ge    9.46886000   12.52781000   15.48835000      0.074161    0.40812300   -0.26530200
Ge    4.76225000   15.57109000   10.20011000      0.224408    0.12950100    0.49586200
Ge    9.00225000   18.51938000    0.02807000      0.613412    0.04056100   -0.69295700
Ge    7.56604000   22.24340000   12.32030000     -0.313849   -0.30418800    0.51113100
Ge    4.47755000    0.63179000    1.24368000      0.002864    0.12062900   -0.31188700
Ge    9.26431000    5.29392000   10.60097000      0.281501   -0.65415200   -0.47370800
Ge   12.16705000    6.35776000    0.45162000      0.048220    0.27483200   -2.47691400
Ge   10.08021000    7.64562000   10.91535000     -0.602693   -0.23937900    0.42137000
Ge   13.49761000   12.51878000   18.66707000      0.601872   -0.05792700    0.18791200
Ge   11.08985000   19.79435000   10.22624000     -0.966819   -0.32787300    0.80255600
Ge   12.49145000   16.13013000   19.41471000     -0.198907    0.00962000    0.41835800
Ge   11.15270000   23.22787000    9.09216000     -0.202188    0.36861800   -0.09689800
Ge   15.75584000   22.56532000   18.75565000      0.354476    0.63456400   -0.41512300
Ge   20.50819000    4.76932000   11.44721000     -0.001181   -0.04227900   -0.33658400
Ge   20.66827000    8.01339000   19.67767000     -0.156544    0.50734800    0.08573700
Ge   19.67263000   11.27629000   10.42980000     -0.243060   -0.67661800   -0.54380600
Ge   19.17015000   12.00956000   18.25157000     -0.239987    0.30080300    0.61836800
Ge   14.97698000   20.80004000    8.83878000      1.044676    0.34512000    0.25730900
Ge   16.97654000   16.00493000   18.74307000      0.498960    0.30813300   -0.91198300
Ge   19.94883000    0.59702000   11.58725000      0.137426    0.53717000    0.41612500
Ge   20.42122000    4.31712000    3.53313000     -0.909045   -0.21131500   -0.27897900
Ge   23.42104000    5.79366000    7.37776000      0.101451   -0.07125400    0.18354200
Ge    3.49397000    3.34005000    4.15481000     -0.193895   -0.00689900    0.12001400
Ge    1.45364000   10.52637000    9.39283000      0.406369   -0.72117400    0.10925000
Ge    1.78245000    8.60596000    0.59276000      0.261307   -0.55289700   -0.05744700
Ge   20.82990000   15.31666000    8.67738000      0.577576    0.67889100   -0.26385700
Ge    0.42494000   15.12576000   19.81579000     -0.241510    0.56211200   -0.80886700
Ge   18.65637000    1.20604000    9.15353000      0.548749    0.75808100   -1.09103900
Ge    0.82690000   20.99098000   19.45867000      0.286792    0.14616600    0.94806300
Ge    4.92315000    9.69510000    9.01073000     -0.316209   -0.71008200   -0.62398300
Ge    1.88415000    4.26328000   19.59733000      0.107395    0.13661700    0.21758900
Ge    2.10291000    9.00917000    6.13591000      0.236443   -0.11932200    0.66454700
Ge    4.62970000   11.16959000   16.14563000      0.122510    1.42267900   -0.68032900
Ge    6.35782000   17.34705000    3.43817000     -0.391275   -0.12328900    0.05208600
Ge   23.56953000   17.84498000   17.24874000      0.110030   -2.00603600   -0.59311100
Ge    4.71889000   20.14682000    9.95055000     -0.739030    0.06347300   -0.00069500
Ge    4.36925000   21.40314000   18.29769000      0.431137    0.83327400    0.19265600
Ge    9.00814000    1.49886000    7.56009000      0.502421    0.51351700    0.49187900
Ge    7.47991000    8.32239000   18.43410000      0.402507    0.12107000    1.08761600
Ge    5.81941000   12.88703000    6.72463000      0.045255    0.07604600    0.09624200
Ge    8.10544000    8.56200000    1.76881000      1.641059    0.14418100   -0.64239600
Ge    8.63939000   17.28933000    8.17972000      0.496713    1.22750200   -0.17057000
Ge    3.45321000   18.46579000    0.07262000     -0.010213    0.45689200    0.52361200
Ge   10.72600000   21.81344000    6.48671000     -0.551795   -0.39310400   -0.22059300
Ge    9.63164000    2.94389000   18.21010000     -0.421234    1.47620100    1.37901700
Ge   12.90042000    7.26115000    6.28861000     -0.372204   -0.64137400    1.58309700
Ge   15.12634000    9.39470000    0.47376000      0.300686    0.15325800    0.37344100
Ge   15.90746000   13.60671000    6.16764000      0.323287    0.21020300    0.98468900
Ge   17.20882000   14.32920000   14.99792000      0.249891    0.37598000    0.77607300
Ge   13.11134000   16.31479000    4.00305000      0.142023   -0.11320700    0.58318600
Ge   15.72043000   18.03265000   14.12239000     -1.262213    0.33941600   -0.99989500
Ge   14.95560000    0.71377000    8.79406000     -0.260088    0.02509600   -0.17948000
Ge   14.95892000    3.89323000    0.38275000      0.354041   -0.19866200   -1.23674200
Ge   20.01723000    6.43653000    6.60562000     -0.011680    0.63149700    0.05656600
Ge   22.40052000    5.63739000   16.08977000     -0.283324   -0.33460600    0.89262800
Ge   20.12702000    9.51379000    7.85491000      0.425481   -0.46206900    0.65393200
Ge   21.78149000   13.75992000   17.78007000     -0.085308    0.38550200    0.02517000
Ge   18.81565000   18.42385000    6.76416000      0.224569   -0.82337100    0.05564100
Ge   20.29612000   20.08246000   16.67847000      0.299949   -0.92886300   -0.92009700
Ge   19.19423000    1.08420000    5.53414000     -0.219639    0.05205700   -0.46952600
Ge   19.15150000   22.70784000    0.94229000     -0.686772   -0.62806700    0.17956200
Ge    4.62874000    2.01553000   11.28799000     -0.426481   -0.69586700    0.25286000
Ge    5.80089000    3.05422000   18.13742000     -0.344828   -0.30577000    0.11197800
Ge    3.36611000    6.29780000    5.81299000     -0.754382    0.06155400    0.64322100
Ge    2.18505000   10.23222000   12.36773000      0.064965    0.54590300    0.20337600
Ge    3.88632000   18.35226000    6.70105000     -0.504443    0.30671900    0.81407300
Ge    0.96783000   14.21496000   15.99120000     -0.184376   -0.04265600    0.25216200
Ge   23.21733000   21.01773000   11.13786000      0.501882    0.19096000   -0.05879300
Ge    2.23766000   23.22259000   13.71887000      0.449485    0.41548100    1.27324300
Ge    9.59271000    3.97055000    1.83811000      0.432906   -0.01528000   -0.39459200
Ge    9.00990000    1.23090000   16.69384000     -1.197878   -1.70969400   -1.99657300
Ge    8.18602000   10.91829000    6.18161000     -0.225719   -0.44287100   -1.89995200
Ge    7.87773000   10.18043000   16.06135000     -0.045522   -0.49008900   -0.24045600
Ge    9.08345000   14.65775000    6.84853000     -1.383083    0.65100400   -0.37570500
Ge   16.17431000   10.16575000   16.10620000     -0.153679   -0.18862400    0.57031600
Ge    7.84959000   20.72143000    5.24156000      0.277270   -0.94490100    0.05301100
Ge    8.01033000   18.82713000   16.54007000     -0.371173    0.49370600    0.30307200
Ge   14.23702000    3.02873000    5.79169000      0.015651   -0.07105500   -0.18880700
Ge   13.63710000    2.77103000   15.71038000     -0.402694   -0.70842100   -0.53835000
Ge   15.30961000   10.85447000    4.89687000     -1.360319   -0.58266000   -1.31422400
Ge   14.95780000    6.80388000   15.37033000      1.255240   -0.94605800    0.05855200
Ge   16.16192000   14.00986000    2.89974000      0.457528    0.91411600   -0.38776300
Ge   12.34689000   16.35452000   15.74567000     -0.830955    1.15317500    0.40911400
Ge   15.21332000   19.30399000   17.77788000     -1.063833    0.13934800   -0.88971200
Ge   10.35946000   21.92370000    0.25159000     -0.104292   -0.79551800   -0.61159300
Ge   23.36329000    4.01171000    4.37368000     -0.037783   -0.27522500   -0.25493500
Ge   22.56534000    2.85251000   14.93376000      0.733228   -0.65730000   -0.56121900
Ge   21.82229000    8.47867000    5.69787000     -0.454041    0.86309500   -0.92751900
Ge   20.67450000   10.56702000   14.45809000      0.205212   -1.10578200   -0.18757700
Ge   22.39655000   17.59800000    6.07849000      0.394459   -1.46902200   -0.09676900
Ge   19.97527000   14.20228000   11.59051000      0.933310    0.30321200    0.03432400
Ge   20.28544000   20.73413000    6.04356000      0.008182    0.26660900   -0.51585400
Ge   21.05845000    0.46986000   17.34206000      0.014181    0.53896600   -0.20754600
Ge    6.16952000    3.65499000    6.36141000     -1.950112   -0.51290900    0.07577600
Ge    2.76244000    3.73254000   14.00234000     -1.696220   -0.34060200    0.21638800
Ge    5.60065000   11.20128000    2.87262000     -0.324508   -0.09652800    0.15128400
Ge    7.95341000    7.82907000   13.22741000     -2.502444   -0.14273300   -0.14613800
Ge    5.74043000   15.01256000    0.28526000     -0.853837   -0.07976400    0.27400000
Ge    3.47808000   13.91987000   13.99198000      0.257848   -0.40421900   -0.26793300
Ge    5.81530000   22.25165000    5.24812000     -1.147031    0.68310400    0.40210500
Ge    5.60057000   22.29962000   14.79167000     -0.432544    0.56835300    0.43584600
Ge   14.27504000    6.67613000    3.49539000      0.573240   -0.39908500   -0.50234600
Ge   13.29014000    0.55360000   12.48856000      0.023898   -1.18869200    1.51864200
Ge   11.27365000    9.96349000    1.16944000     -0.927262    0.90566600   -0.18423200
Ge   13.82859000   10.09278000   11.10442000      0.705570   -0.91396100   -0.75297000
Ge   11.59223000   13.87424000    2.01657000     -0.396198   -1.19341200    0.61579100
Ge    7.63612000   17.31755000   11.71015000     -1.124688    0.25894300    1.34125300
Ge   12.57328000   21.98839000    1.80821000      0.161403   -0.15102000    0.23908800
Ge   11.11071000   23.52285000   13.91760000      0.603652   -1.59032300    0.02169000
Ge    0.90675000    1.26583000   18.47829000     -0.484415   -0.66276100    0.36130900
Ge   13.08303000    5.52001000   12.22971000      0.082740   -0.22533400    0.34386100
Ge   17.43637000    4.47192000    1.32096000      0.013488    0.33648300   -0.44919600
Ge   12.82068000    6.92243000    8.80788000      0.354561   -0.80301800   -0.33192100
Ge   21.30520000   14.04527000    3.49336000     -0.403163   -0.19321800    0.64398800
Ge   16.10514000   17.17658000    8.72424000      1.439682    2.66403800    0.28254700
Ge   18.05220000   20.25374000    4.03704000      0.457518   -0.06841100   -0.08757500
Ge   18.95718000   21.51527000   12.95990000     -0.284848   -0.03545600    1.56703500
Ge   23.64273000    0.36864000    3.10249000     -0.223504    0.64835500    0.52458800
Ge   23.29904000    1.84025000   10.02490000      0.523894    0.28469500   -0.54055200
Ge   23.58575000   11.02055000    1.82944000     -0.944779    0.10172500    0.11195700
Ge   23.07719000    9.42557000   13.02626000     -0.245835   -0.15586800    0.16482600
Ge    3.04445000   14.08549000    2.07167000     -0.356181    1.17591100    2.61227000
Ge    1.09529000   16.36234000   12.69485000     -0.938443   -0.70648400   -3.27773000
Ge   23.51076000   21.94670000    5.53366000      0.030597   -0.30037000   -0.71418800
Ge   20.94740000   18.56456000   12.02372000      0.283924    0.19607900   -0.20882800
Se    2.51738000   23.29531000   19.54484000     -0.187597   -0.77710400   -0.22005600
Se    1.97931000    1.37136000    8.96690000     -0.381721    0.31544400    0.44793700
Se    1.28956000    6.15654000    1.86490000      0.165473    0.28740100   -0.06527100
Se   23.04353000   10.29406000   10.56413000     -0.051833   -0.65102900    0.69149300
Se   22.41439000   13.24560000    1.55005000     -0.077238   -0.05354600   -0.59664100
Se   23.51930000   14.04838000    8.30949000     -0.089386   -0.46961700   -0.27702600
Se    1.17103000   19.74669000    4.77683000     -0.146547    0.54785100    0.21128200
Se    0.14241000   18.56941000   11.33551000     -0.336978   -0.27501100   -0.05502500
Se    6.72261000    1.71941000    2.67013000     -1.125445    2.70585300   -1.05312700
Se    4.78483000    3.79387000   12.99069000      1.843668    0.79830700   -0.01536200
Se    8.76159000    5.01153000    4.06415000      0.615759    0.15129300    0.18897300
Se    8.06158000    8.99699000   10.72681000     -0.524038   -0.67106100   -0.40009800
Se    8.06579000   10.49786000    0.22672000     -0.695993   -0.11680000   -0.16032600
Se    6.55696000   15.18311000   12.02224000     -0.787367   -0.01729700   -0.17193000
Se    6.98100000   19.49377000    2.33266000      0.260591    0.26774500    0.48077400
Se    9.55755000   20.67067000   12.68404000     -0.950857    0.44165900   -0.12390000
Se   11.61300000    1.16725000   18.58200000      0.553125    0.31862300    0.94927000
Se   14.14285000    2.48222000   11.56218000      0.417486    1.24367500   -0.05076400
Se   11.78545000    8.66966000   19.11598000      0.275321   -1.35457500    0.15030000
Se    8.01516000   11.60495000    8.44658000     -0.676820    0.29910000    1.32075300
Se   13.71229000   14.25471000    0.71516000      0.613438   -0.15429100   -1.04716300
Se   11.67484000    8.82273000    9.73738000      0.865157    1.41138000   -0.38566400
Se   14.82261000   17.40836000   19.29239000     -0.017728    0.27386100    0.52438600
Se   12.67229000   20.71290000   12.10651000      0.065257   -0.59402700    0.06644900
Se   17.40426000    3.65720000    3.61274000      0.295851    0.09366100    1.29944300
Se   14.80628000    3.62090000   13.63246000     -0.395960    0.52900900   -0.44319900
Se   14.27268000    4.72802000   16.80243000      0.437371    1.19813100    0.09808100
Se   20.25091000    2.80926000   13.12978000      0.080613    0.44993300   -0.28712900
Se   20.56204000   10.29396000    1.08682000      0.472247   -0.97595700   -0.32837900
Se   16.50078000   19.18065000    7.16117000     -0.837368   -0.05551100    0.03837400
Se   19.39205000   18.72160000    0.20739000     -0.064881    0.23321800    1.17361800
Se   19.75742000   19.71204000   10.14334000     -0.145549    0.10695500    0.11045700
Se    3.37307000   23.15980000    3.74224000      0.558129   -0.32326800   -0.31552500
Se    2.49396000    6.70144000   11.58247000      0.676896    0.47804000    0.15420900
Se    5.58303000   11.39853000    0.21717000      0.648609   -0.25139400   -0.66817600
Se    4.65983000   13.15710000   11.00241000     -0.405966   -0.19282800   -0.68882300
Se    3.53831000   13.41880000   19.89268000      1.036014   -0.63110800   -2.54209900
Se    3.37671000   17.23902000   11.92842000      0.189874   -0.61580100   -0.05110900
Se    5.01000000   20.39824000    0.78619000     -0.825991    0.30790500   -0.38090200
Se    5.57643000   19.67932000   12.37261000     -0.324018    0.61559300    0.14697400
Se   11.05360000    6.18667000    2.39308000     -0.545850   -0.03059000    0.97994200
Se    7.04180000    2.48321000   11.37979000      1.431114   -0.00640500   -0.94441800
Se   11.08107000   12.26901000   18.89666000     -1.288497    0.25029200    0.47039100
Se   10.75691000   12.03395000   11.28222000      0.265875    0.35255500    0.59758000
Se   11.30621000   16.24856000    2.33616000      0.162354    0.57898800   -0.46883100
Se   11.63036000   16.41959000   12.93823000      0.315535   -0.89523000    0.40548700
Se   11.64279000   22.60630000   17.95014000     -0.645390   -0.11117600    0.32730900
Se    9.93936000   22.97800000   11.65776000      0.077888    0.14959400   -0.31920500
Se   11.57230000    4.22467000   18.87346000      0.220958    0.73699900   -0.01174800
Se   18.59820000    8.08557000    9.37611000      0.012382   -0.33193000   -0.46122100
Se   16.55711000   10.14816000    3.04262000      0.626261   -0.61263700   -0.43372400
Se   18.35344000   13.32925000   10.05970000      0.085781    0.08763400   -0.21247800
Se   19.13294000   14.81522000    2.38264000      0.799639    0.40409300    0.01902700
Se   14.06277000   16.27310000    8.55069000     -2.026279   -0.72752000   -0.16085100
Se   16.91846000    0.41336000    0.35246000      0.535458   -0.18072200    0.12593200
Se   16.74765000    0.38056000   10.37089000     -0.451782    0.36413000    0.78564500
Se    1.13424000    2.10650000    1.94235000     -0.165894    0.29605600   -0.16595200
Se   22.74707000    4.24988000   10.19028000     -0.361082   -0.57433000    0.13541800
Se   22.56427000    5.37821000    2.21794000      0.700957    0.24171800   -0.34701300
Se   21.08539000   12.12713000   12.26695000     -0.151038    0.54744800   -0.06129700
Se   23.08647000   15.10594000    4.90875000     -0.928894    0.30195400   -0.04621500
Se   21.76708000   15.88789000   10.94121000     -0.919048   -0.81795700    0.00337100
Se   23.19756000   21.73328000    2.06187000      0.042126   -0.28955300    0.07008400
Se   22.12357000    0.05672000   15.05050000     -0.669169    0.31419100    0.29465900
Se    3.58435000    3.24891000    9.37888000     -0.320097    0.03889000   -0.80625400
Se    3.94578000    5.98484000   18.86895000      0.551545   -0.69543500    0.67243200
Se    3.74496000   12.09004000    8.53122000      0.386050    0.13932200    0.90384100
Se    4.76254000    7.10116000   14.48651000     -0.482818    0.17759300    0.95492900
Se    7.34564000   18.21830000    6.01583000     -0.464552    0.75524100   -0.33938300
Se   21.80562000   16.00092000   18.87738000      1.203064   -0.08500900    0.23890400
Se    2.28750000   21.40153000   11.94851000     -0.414017   -0.08994600   -0.63362400
Se    2.52757000   19.80494000   18.01361000     -0.347616   -0.44873700   -1.01296600
Se    7.74137000    3.73173000    7.99499000      1.457781   -0.90614100    0.80387400
Se    5.70502000    4.53054000    1.11053000     -0.124063   -0.01130200   -0.42269300
Se    5.44635000   10.68719000    5.50661000     -0.190484    0.41467500    0.46310300
Se    4.10417000    9.53669000   18.15513000     -0.086599    0.04886600    0.89356700
Se    6.48744000   18.26355000    9.89861000     -0.196653    0.37176600   -0.98493600
Se    5.52153000   16.15294000   17.91929000     -0.278496   -1.62498900   -0.37255600
Se    9.33331000   19.64021000    8.19964000      0.055153    0.77696900    0.00756700
Se    7.93518000    2.68331000    0.06373000      0.798896   -0.03189400   -0.42190000
Se   14.56706000    2.97720000    8.22450000     -0.190927    0.29781100    0.28850500
Se    8.26844000    4.34205000   16.49796000      0.900779    1.26333700    0.30821900
Se   11.42222000    4.84888000    8.89897000      0.106036    0.87592800    0.73886700
Se   18.68742000   10.73977000   16.09215000     -0.388005   -0.83393600   -0.18523300
Se   12.74204000   19.87018000    8.59364000      0.400473   -0.46023300   -2.05881900
Se   16.13165000   16.53450000   15.94760000      1.174329   -1.60453800    1.52936100
Se   15.24635000   22.90421000    6.92815000      0.275790    0.25711200   -0.27409900
Se   18.91684000    3.62126000   16.60904000     -0.124484    0.17152000   -0.31812000
Se   17.79107000    4.30747000   10.79036000      0.701799   -0.08955200    0.97034800
Se   23.49664000    3.51713000   17.15191000     -0.634369    1.15617500   -0.09166100
Se   19.18535000    8.59254000   12.82710000      0.939409   -0.01998500    0.39994500
Se   20.50635000    8.67192000   16.36141000      0.196487    0.96245400   -0.23803400
Se   16.30410000   19.07569000   10.63703000     -0.253007   -0.68226300   -0.05415600
Se   18.89762000   14.29748000   17.27666000     -0.336126    0.23437300   -0.49993200
Se   17.92261000   23.15928000    7.01858000     -0.123547   -0.21466500    0.45824400
Se   17.66245000   20.40955000    1.55175000      0.389333    0.31546100   -1.21979200
Se    5.01473000   21.97601000    8.31947000      0.147732    0.19795900    0.75400900
Se    3.72803000    3.13698000    1.24290000     -0.040593    0.05107800    0.57317800
Se    7.18491000    7.02594000    9.48938000      0.305100    0.69810000    0.34717900
Se    4.45929000    8.23562000    0.45680000     -0.013392   -0.05501500   -0.19526600
Se    4.58906000   16.45898000    5.33622000      0.295650   -0.84459500   -0.19602100
Se    6.97503000   12.26226000   16.87715000     -0.002291   -0.60572600    0.30133400
Se    2.72761000   18.79815000    9.18370000      0.703824   -0.14192200   -0.11758600
Se   21.44717000   20.08411000    2.00407000      0.120335    0.98538700   -1.39192000
Se    8.24704000   22.75494000    7.54739000      0.864787    0.47509900   -0.28055900
Se   13.05194000    4.20341000    3.28722000     -1.572897    0.76563700    0.13469100
Se   10.71965000    1.98697000    9.45741000     -0.767092   -1.04012900   -0.53502200
Se    8.32931000    6.57021000    0.36065000     -0.156697    0.60682000   -0.04053000
Se   10.95197000   13.50185000    7.29235000      2.058549   -0.12593700    0.70059300
Se    9.57246000   13.93773000    0.61354000      0.680039   -0.59274300   -1.19957500
Se   13.43186000   23.17775000   10.32419000      0.129445   -0.52407300   -0.80504800
Se   16.14424000   12.20806000   17.29844000     -1.183328    0.47740900   -1.35582800
Se   17.99025000    3.24224000    7.07316000      0.090893   -0.80726600    0.10569200
Se   14.84219000    2.99602000    2.69053000      1.182997   -0.73735300    0.36718000
Se   16.51562000    8.72659000    8.49592000     -1.405333   -0.56117000    0.28175600
Se   14.99262000    8.40338000   17.31140000      0.227421    0.02149800   -0.34131000
Se   14.95200000   14.09616000    8.36002000     -0.547113   -0.34701200    0.27328600
Se   16.85890000   12.08652000   19.82922000     -0.512372   -0.22887200   -1.91628100
Se   13.69531000   19.67730000    2.79039000     -0.415039    0.08040000    0.58300300
Se   19.54413000   22.30715000   17.08928000     -0.913073    0.38925400    0.56775800
Se   22.55111000    1.04942000    7.83309000     -0.359607   -0.06448800   -0.18320500
Se    0.67430000    0.63399000   15.60879000      0.488282    0.12660900    0.15273700
Se   21.36311000    7.27849000    8.68468000      0.341613    0.37377300   -0.27869600
Se   22.98784000    8.04711000   16.52662000     -0.161217   -0.47028400   -0.37650200
Se    0.23784000   10.86037000    7.27779000      0.256311   -0.53028700   -0.37001200
Se   23.10848000    8.30804000   18.80225000     -0.178280    0.24951600    1.12386100
Se   21.68480000   17.85548000    8.32163000     -0.796753   -1.07567300    0.32877400
Se   18.84370000   18.11013000   17.99102000     -0.822579   -0.66111100   -0.06435600
Se    1.46541000   21.94591000    9.71265000     -0.231677    0.05507900    0.23342100
Se    2.30196000    1.58690000   12.44230000     -0.270586   -0.05787000    0.16537900
Se    2.91322000    7.93461000    8.58984000     -0.370790    1.29587200   -0.87181900
Se    2.57765000    7.45329000   17.78367000     -1.027829    0.78332100   -0.89369300
Se    1.21167000   15.81943000    8.62548000      0.697968    1.19237600    0.22465800
Se    0.63392000   12.93787000   18.75575000     -0.628437    0.34669300   -0.24694100
Se    3.57378000   20.25938000    5.14503000      0.207034    0.06059500    0.18150300
Se   22.45413000   19.69077000   18.00004000     -0.190161    1.42360500    0.71541700
Se    7.20828000   23.56863000    3.65460000      1.412841   -2.65736300    1.52085800
Se    5.57171000    0.60991000   18.87758000      0.351806    0.35465200   -0.17801000
Se   10.73948000    7.09659000    5.45582000     -0.289073   -0.16637300    0.24248800
Se    6.52731000    8.00916000   16.02509000     -0.316482   -0.75675200   -0.68508300
Se    7.42118000   15.27342000    8.62536000      0.130368   -0.89456100   -0.84243800
Se    7.55673000   18.56148000   13.79051000      0.481090   -0.07322600   -0.13986300
Se    8.14843000   16.13781000    2.30530000     -0.183501   -0.66309500    0.03151100
Se    8.16577000   14.27063000   14.57718000      0.684341    0.10612600   -0.40111200
Se   15.41589000   20.92140000    4.16696000     -0.410555    0.16135400    0.27346300
Se   14.20331000   22.60953000   15.72466000     -0.772796    0.17105800    0.39358800
Se   13.33838000    9.01855000    4.84259000      0.496473    1.39135500   -0.29434200
Se   10.28004000    7.81180000   13.48462000      1.766096    1.15411500    0.29925400
Se   14.30258000   13.23879000    4.47533000     -1.315539   -0.86614000   -0.24874200
Se   13.73519000   15.22163000   14.29120000     -0.057064   -0.25695200   -1.19006200
Se   12.51869000   18.60501000    4.65855000      0.217382    0.80003700   -0.16093000
Se   17.09470000   20.95703000   17.33324000     -0.737984    0.08890200    0.68283800
Se   17.21685000    1.17919000    3.81144000      0.843322    0.52865000    0.27134100
Se   19.77284000    2.45597000   18.37567000      0.528708   -0.85388600    0.08521200
Se   20.13477000    7.65727000    3.61442000      0.155553   -0.27179900    0.85746500
Se   19.98163000    5.78534000   16.60696000      0.032699    0.07480800   -0.24234500
Se   20.18899000   12.01409000    4.52296000      0.774626    0.17819400   -0.23093200
Se   17.07456000   11.39518000   13.07325000     -1.097849    0.33005300    0.01469800
Se   19.75135000   17.56708000    3.89867000      0.220683    0.38223200    0.18465600
Se   21.15527000   20.69172000   13.50751000      0.055106   -0.51030500   -0.06689800
Se    5.34298000    5.82635000    7.11377000      0.272110   -0.17898100    0.39233100
Se    3.26648000    3.63969000   17.45546000      0.360590   -0.01681100   -0.23202500
Se    3.15412000   10.09929000    2.54979000     -0.278627    0.65063000    0.39393600
Se    5.08566000   11.81522000   13.65490000     -0.786355    0.57562800    0.48286800
Se    3.84423000   14.10932000    5.78802000     -0.326958    0.77765600   -0.54937800
Se    1.99359000   16.33199000   17.75166000     -1.104522    0.05072900    0.95784100
Se    1.75706000    0.26560000    5.16064000     -0.653938    0.01432200    0.29239900
Se    3.86806000   19.83335000   14.07057000      0.448304    0.46442800    0.05189800
Se   12.24285000    0.12777000    6.12942000     -0.755730    1.11197900    0.09578600
Se    6.89779000    2.68636000   15.71261000      0.040194   -0.70987000    0.18680600
Se   10.22028000   11.30955000    7.72996000      1.006814   -0.49067400    0.32693800
Se   12.37712000   13.71469000   16.75787000     -0.335431   -0.08330300    0.18516000
Se    9.60367000   16.63260000   10.93350000      2.484175    0.34520700   -1.12013300
Se   11.54448000   19.30771000    0.62037000      0.002256    0.73773500   -0.48439400
Se    9.81205000   21.36957000    4.01744000      0.330694   -0.00514800    0.46988200
Se    8.31757000   20.75348000   18.93981000      0.054844   -0.13173200   -0.02703200
Se   14.63999000    5.62899000    5.89097000      0.739699   -0.07548300    0.21412100
Se   14.55969000    6.39452000    0.33353000      0.066277    0.20600300    0.46776700
Se   16.18662000   11.25317000    6.96311000      0.745300    0.26472500    1.06564100
Se   17.20931000    6.42348000   14.10292000     -0.747795   -0.09993700    0.53101400
Se   17.67195000   14.53058000    4.90350000      0.278359   -0.14265200   -0.55129100
Se   13.59708000   18.93257000   15.54621000      0.946097    0.13861000    0.58138500
Se   15.74170000   22.84577000    2.58979000      0.133869   -0.74289000   -0.15688000
Se   17.98402000    3.89211000   13.27760000     -0.435506    0.51882600   -0.65139900
Se   21.46934000    4.48891000    6.22147000      0.988061   -0.29255900    0.23475700
Se   23.45315000    5.52581000   13.97686000     -0.461595    0.11047000   -1.17125500
Se   17.56253000    9.70351000   11.44652000      0.719360    0.51075800    0.15632400
Se   21.60868000   15.01821000   15.33564000     -0.279867   -1.70373200    0.07307800
Se   17.60203000   15.81732000    7.70324000      1.746908    0.34603100   -0.16067800
Se   22.22979000   17.08408000   14.77847000      0.802243    1.28357300    0.61339100
Se   20.74799000   23.32439000    8.41762000     -0.041331    0.17208700   -0.37994400
Se   22.34734000   23.40445000   19.09500000      1.097563    0.43468900    0.29914300
Se    4.38072000    1.79292000    6.98625000      0.884181    0.68031700   -0.50082200
Se    3.89992000    0.21228000   15.81180000      0.429498   -0.78087900   -0.91271800
Se    4.32834000    5.80699000    3.67375000      0.407617   -0.85651500   -0.55899400
Se    4.41183000    9.32056000   11.37405000      0.704256   -0.07033300    0.71175900
Se    1.77290000   12.07706000    3.15967000      0.310776   -0.55592000    0.29980500
Se    3.43978000   13.97403000   16.54949000      0.516875   -0.93569200   -0.47548800
Se    4.22429000   16.55312000    1.65627000      0.647288    0.03134400    0.33850100
Se    4.18634000   16.44156000   14.19376000     -0.290180   -0.21029800   -0.82906900
Se   11.20662000    1.69020000    1.36214000      0.272772   -0.50164400   -0.13634200
Se   10.83893000    1.90683000   14.96394000     -0.275951    1.13796800    0.65799900
Se   10.15854000    9.07627000    3.27470000     -0.563987   -0.18608500   -0.91252300
Se    9.61247000    8.80468000   17.12327000     -0.187246    0.28499400    0.07069300
Se    8.06622000   13.42913000    5.09011000     -0.446674   -0.45299600   -0.21464800
Se   12.78763000   11.37951000   12.65502000     -1.521565    1.03535400    0.46254300
Se    9.34344000   18.52125000    2.46796000     -0.570596   -0.08882900    0.76675500
Se    7.73767000   22.74019000   15.92212000      0.523405   -0.12497000   -0.28253900
Se   18.67601000    5.15968000    8.21314000     -0.580809   -0.41128600    0.25828100
Se   14.96697000    0.79078000   17.01721000      0.168674   -0.67502800    0.59919300
Se   17.15287000    6.70031000    2.23987000     -0.356561    0.12595500    0.22971000
Se   13.15498000    7.31000000   13.93508000      0.373215    0.68414300    0.19861900
Se   18.04609000   12.20006000    1.75444000      1.423822    0.36535100    3.37325400
Se   19.26894000   17.84209000   13.78781000     -0.312809   -0.64893200   -0.46074600
Se   14.85456000   16.87086000    2.50526000      1.107135   -0.60587400    0.03834600
Se   17.22751000   20.01932000   14.24177000      0.958422    0.72676300    0.13256700
Se   21.70467000    1.85013000    4.02996000      0.253931    0.11511400    0.03199700
Se   22.47572000    0.10198000   11.47689000     -0.061338    0.02070900    0.60589700
Se    0.34078000    7.36482000    5.32073000     -0.569675   -0.08493500   -0.08423300
Se   21.86261000    6.96596000   12.32041000      0.392578   -0.10826300    1.01939200
Se    1.07906000   17.91968000    6.70324000      0.485064   -0.33543800    0.26306400
Se    1.20169000   11.58000000   14.51755000     -0.504426   -0.05159300   -0.45620800
Se   22.30868000   20.84976000    7.40975000      0.310783    0.05689000    0.25260100
Se   18.12892000   21.85316000   10.76135000      0.741923   -0.75067200   -0.81732200
Se    1.88944000    4.12720000    6.20759000      0.055447    0.40339700   -0.32956800
Se    2.03442000    4.53610000   11.13580000     -0.409205   -0.55024100    0.29365100
Se   22.30116000   10.85396000    4.32219000      0.107889   -0.02617100    0.25482200
Se    1.69198000    8.64982000   14.22683000     -0.145563    0.06607000   -0.73644500
Se    1.06604000   15.85332000    2.14001000     -0.135390   -0.37069400   -0.59648900
Se    1.46282000   17.10562000   14.73892000      0.381131    0.85692600    2.83412000
Se    2.01685000   19.65708000    1.69058000     -0.158185   -0.01870100   -0.79742900
Se    6.36607000   18.21871000   18.45490000      1.044400    0.44074500    1.20191000
Se   10.51970000    2.02785000    5.69569000      0.551863   -0.77704500    0.04605200
Se    8.63420000    2.71661000   13.03878000     -0.424267   -0.29238400    0.20225300
Se    6.16307000    8.74650000    2.90990000     -0.896348   -0.46250400    1.23446600
Se    7.82297000   10.23711000   13.65509000      0.330430    0.90354100   -0.15715400
Se    6.57187000   13.62490000    2.18341000      0.373512    0.36094600    0.14543400
Se   10.10433000   14.23576000   12.75445000      0.315668   -0.95866600    0.87127100
Se    5.96139000   23.66977000   10.18709000     -0.528118   -0.18920100   -0.31996200
Se    5.37275000   18.99641000   16.43459000      0.137287    0.88706900   -0.74912000
Se   13.51466000    0.61926000    2.23177000     -0.751015   -0.51493500   -0.21882200
Se   10.49618000    5.51079000   13.24729000      0.157578   -1.67512500   -0.30650200
Se   13.43471000   10.09193000    2.07014000      0.562613    0.57619100    0.19248200
Se   15.12270000   10.11105000   13.94079000      0.685103    0.27332300   -0.66025400
Se   10.44853000   16.64306000    6.54998000     -0.314827   -0.56876500    0.29100900
Se   13.98439000   18.84823000   11.45075000      0.240324   -0.43376200    0.92048600
Se   14.13831000   21.08372000   19.81839000      0.220365   -0.43395500   -0.53186800
Se   15.22776000   22.85135000   13.72124000     -0.008041    0.47134100   -1.33074400
Se   19.85403000    4.27908000    1.08321000      0.142191    0.09160200   -0.69472600
Se   15.10102000    6.92191000    9.82648000     -0.099090    0.29096900   -0.27848300
Se   21.86014000    8.11498000    2.09728000     -0.479181    0.19788000   -0.68094600
Se    0.80261000   13.75441000   12.99961000      1.029746    0.15409200    0.82315900
Se   22.00405000   18.80179000    3.98606000     -0.689123   -0.05687900    0.38193200
Se   18.46059000   15.65430000   12.66804000     -0.690188    0.93398500    1.20901600
Se   19.81540000   22.16690000    3.72489000     -0.211246    0.17732400    0.93722800
Se   19.35548000    0.08596000   14.02624000     -0.491235   -0.75923100   -0.78474300
