384
23.69824000 23.69824000 19.89960000
Ge    5.87144000    5.96259000   12.21903000     -0.460107    0.13787700    0.25277100
Ge    5.00362000    4.10888000    2.95365000      0.381355    2.39223500    0.43397700
Ge    3.02132000   11.94276000    6.84449000     -0.574122   -0.25997100    0.64501800
Ge    8.88190000   14.03135000   16.98077000      0.220953   -0.08099500    0.50278200
Ge    4.88855000   15.71208000    9.97405000      0.321173   -0.37540500   -0.10675800
Ge    8.92991000   18.23244000   19.11684000      1.179602   -1.30496200    0.87395900
Ge    6.65811000    0.15701000   11.21825000      0.295707   -0.48407400    0.70271600
Ge    5.54515000    2.72091000    0.32834000      0.331650   -0.21590200   -0.27976100
Ge    8.95953000    5.13874000   11.35799000      0.654286   -0.26487700    0.41040500
Ge   11.06422000    5.32537000   18.40436000     -0.156376    0.31398700    0.84883100
Ge   11.63712000    9.63089000   11.17296000     -0.541202   -1.46813900    0.26538500
Ge   13.77044000   12.70975000   18.54015000     -0.446068   -0.18384600   -0.37491400
Ge   10.87789000   17.43299000    9.15361000      1.041906    0.39222800   -0.84905000
Ge   13.67029000   16.48542000    0.68919000     -0.184386   -0.03546300    0.27191400
Ge   11.21988000    0.32117000    9.88749000      0.224078    0.57439600    0.41297200
Ge   16.20196000   22.31036000   19.02556000     -0.956104   -0.73303800   -1.57975400
Ge   19.40479000    4.66282000   11.85703000     -0.010451    0.48517300    0.33966400
Ge   19.73974000    8.47431000   17.52638000     -0.381260    0.38517400   -0.29555000
Ge   20.37955000   13.38111000    9.88171000     -1.040713   -0.43787600    0.19112600
Ge   18.35282000   12.10297000   18.66360000      0.679485   -0.00973500   -0.58837400
Ge   14.23656000   18.74265000    8.99528000      0.950837    0.58667100    0.80746300
Ge   18.31235000   16.34065000   19.52140000      0.869210   -0.13761400   -0.28453300
Ge   19.69973000    1.78723000   11.30072000     -0.056271   -0.48705700    0.03229900
Ge   18.95653000    4.01605000    2.64581000     -0.046156    0.01541500   -0.21388700
Ge   23.29599000    5.99581000    8.55758000      0.134392    0.60756500    0.73882200
Ge    1.07868000    3.80293000    3.43737000      1.162980    0.24904500    0.29586200
Ge    1.96011000    9.66068000    9.76758000     -0.161937    0.44868100   -0.16740700
Ge    0.46238000    9.18582000   19.77636000     -0.204701   -0.35950700   -0.13336000
Ge   21.96732000   15.68799000    9.26244000     -0.521909    0.47259200   -0.11667700
Ge    1.44273000   14.95182000   19.70036000      0.358143    0.00827300   -0.99663100
Ge   20.54962000   23.17325000   10.12537000      0.359144    0.42505000    0.18108600
Ge    1.22226000   21.18793000   19.73636000      1.040900    0.23305400    0.17190100
Ge    4.86697000    7.28598000    8.93239000      0.181182   -0.00250300    0.00197300
Ge    2.80575000    6.29665000   19.65858000      0.269004    0.62037500   -0.09005300
Ge    1.84002000   10.75454000    4.59015000     -1.277849    0.05632400    1.84786800
Ge    4.59181000   12.80089000   15.85591000     -0.819202    0.34960300    0.06799000
Ge    5.78111000   19.78023000    3.31735000      0.030123    0.54312500   -1.02900300
Ge    0.53616000   17.85515000   18.19681000     -0.380246    0.37622100    1.41886000
Ge    5.47967000   20.32548000    8.57803000     -0.629682   -0.15973300    0.07426700
Ge    3.77542000   23.21666000   17.36346000     -0.653704   -0.45544000    0.35212400
Ge   11.13713000    2.44579000    6.71821000     -0.856096    0.25326700   -0.02119100
Ge    7.02075000    9.00812000   18.95812000     -0.060723   -0.68416000    0.38379900
Ge    6.35786000   12.76091000    6.59462000     -0.116374   -0.67767400   -0.49851000
Ge    8.30197000    9.79667000    1.95448000      0.000922   -0.70612600   -0.15059000
Ge    7.16237000   18.04648000    6.70127000     -0.137322   -1.38603800    0.08625200
Ge    5.44985000   20.46293000   18.38086000     -0.119006   -0.55576600   -0.07031800
Ge   12.26575000   22.86169000    6.09285000     -0.878097    0.12595100   -0.56225600
Ge   10.30359000    0.24795000   17.05115000     -0.140399    0.11315500    0.79367700
Ge   12.21548000    6.87449000    5.81711000      2.023773    0.30153600    0.12817900
Ge   14.09343000    7.81693000   17.23811000      2.013451    0.41375400    0.74087000
Ge   15.61270000   11.83673000    6.10278000      0.315885    0.31224700   -2.18421100
Ge   16.89953000   15.15714000   15.72686000     -0.477831    0.08739700   -0.43091000
Ge   12.54962000   16.11825000    4.57021000      0.007067   -0.74739600    1.13322000
Ge   15.12459000   19.61451000   16.37463000     -0.257206   -0.95269600    0.91005200
Ge   16.03296000    0.10907000    9.65129000     -0.886114    0.39802100   -0.00449500
Ge   18.12275000    3.90617000   18.43581000     -0.429422    0.53456100   -0.34804200
Ge   19.95992000    5.54257000    8.14652000      0.115827   -0.58964000   -0.21908200
Ge   22.11538000    5.40909000   16.56761000     -1.108583   -0.38763200   -0.23563600
Ge   19.62158000    8.56688000    7.65597000      0.256073    0.31553400    0.97415300
Ge   22.51003000   13.90841000   17.66567000     -0.691648   -0.11336200    0.24413500
Ge   19.77502000   16.98671000    7.34048000     -0.532833    0.17718300    0.73061600
Ge   18.83156000   19.78921000   16.64941000      0.487153   -1.26496100   -0.40176400
Ge   20.23816000   23.45725000    6.88584000      0.145422    0.05794900   -0.21194500
Ge   19.36854000   21.30475000    1.09716000      0.369859   -0.29210500    0.18133700
Ge    6.52509000    2.70795000    8.89457000      0.561575   -0.24496400    0.05680500
Ge    3.60034000    2.54424000   17.40629000     -0.123238    0.41029700    0.06912800
Ge    3.49962000    7.19515000    5.73731000     -0.468243   -0.30151700    0.26133700
Ge    3.47894000    9.08067000   13.57708000     -1.768930   -0.24104200    1.32684400
Ge    1.52478000   17.15097000    6.53267000     -0.832022   -0.12739100   -0.00480700
Ge    1.79845000   14.85030000   15.90566000      0.292061   -0.37051100    0.60147200
Ge   23.31124000   20.55364000   10.44918000      0.905950    0.12632600   -0.58541800
Ge    4.93638000   21.19714000   15.87545000     -0.113491   -0.80447300   -0.53572400
Ge    7.66199000    2.41799000    3.26458000     -1.082625    0.54382400    0.66125300
Ge    8.36492000    2.39406000   15.63674000     -0.518995    0.35242800   -0.06285300
Ge    9.07481000   10.06478000    5.16891000     -0.571989    0.62092100   -0.19612300
Ge    8.87770000   11.27830000   15.54829000     -0.531194   -0.28543500   -0.31687300
Ge    9.09213000   14.28641000    6.69062000      0.457054   -0.89078100    0.00807700
Ge   14.28357000   12.59718000   15.94718000     -0.272053   -0.81302600    0.30221300
Ge    8.52540000   21.46283000    4.49557000     -0.305013   -0.16454200    0.13781500
Ge    8.59921000   19.71149000   15.96739000      0.286655    0.74388800    0.35306900
Ge   14.50461000    2.19041000    6.37363000     -0.163023   -0.58379300   -0.10521600
Ge   12.78292000    3.25450000   15.51404000     -0.989525   -0.70346700    0.76738300
Ge   15.45663000    8.66859000    4.71518000     -0.963179   -1.73719300   -1.07129400
Ge   15.80811000    9.06384000   13.65341000     -1.461708    0.20207300    0.69797500
Ge   16.57772000   13.47748000    3.28419000     -0.841614    0.06389000    0.89283700
Ge   13.69279000   16.04052000   16.46829000      2.068772    1.82481300   -0.78040300
Ge   13.06628000   19.13496000    0.75678000      0.961305    0.32066700    0.18771000
Ge   10.34913000   21.78676000   19.35072000      0.254999   -0.52622800    0.15712300
Ge   22.74405000    3.68463000    4.96184000     -0.329467    2.88974100    0.11608100
Ge   21.12477000    2.36263000   14.81826000     -0.756825    0.74391200   -0.46850400
Ge   22.42790000    9.80665000    6.28093000     -0.836318    0.95647200    1.12568700
Ge   19.46957000    9.84032000   13.46185000      0.235423   -0.52566100    0.44114200
Ge   22.48958000   16.66172000    2.43845000     -0.766039    0.54062000    0.17869100
Ge   19.57551000   15.66637000   14.45550000     -0.213602   -0.04333000    0.09477900
Ge   20.62040000   20.07479000    4.54879000      0.112761   -2.40574300    0.65759900
Ge   21.12580000    0.05090000   17.28614000      0.600384   -0.62080100    0.10108500
Ge    6.30595000    4.52776000    5.74211000     -0.327778    0.40402300   -0.03450400
Ge    3.97020000    1.40640000   14.60328000      0.631443    0.76568700    0.14839500
Ge    4.53554000   11.90478000    3.12031000      0.197397   -0.41196800   -0.19547800
Ge    7.61604000    8.35216000   13.11824000      0.284321   -1.86529200   -0.43145400
Ge    6.16968000   16.76166000    0.29465000      0.178343   -0.85281400    2.64545900
Ge    2.55746000   13.89611000   11.54372000      0.397039   -0.98465000   -0.52458800
Ge    5.28345000   22.55072000    6.06024000      0.622752    0.05521500   -0.03562300
Ge    6.55185000   20.15122000   13.02957000      0.940039   -0.56890400   -0.25626900
Ge   15.55108000    4.57716000    3.84588000      0.017156    0.18793800   -0.13188000
Ge   12.64392000    0.38458000   12.29297000      0.490735   -0.73519300    0.38201800
Ge   11.79349000    8.19077000    0.26046000     -0.301477    0.15417000   -0.33985600
Ge   12.20719000    8.82589000   13.68539000     -0.143055    1.11527500   -1.25142100
Ge   10.70632000   14.22204000    1.34499000      0.057286    0.34535100    0.13057200
Ge    8.02060000   16.38403000   10.66139000      0.448130    0.05597300   -0.10571300
Ge   13.11055000    0.12512000    2.16653000      0.462425    0.17082100   -0.27522500
Ge   11.05831000   21.59745000   13.10542000      0.087302   -0.18975400    0.44179700
Ge   23.10581000    2.84646000   18.27348000      0.772345   -0.98179200    0.18651100
Ge   12.12282000    5.06908000   11.72523000     -0.998289    0.59375500   -1.00693800
Ge   17.62560000    8.19344000   19.25436000      0.018552   -0.17717500    0.71477800
Ge   13.10941000    7.25331000    8.55884000     -0.641005    0.69285800   -0.56005000
Ge   19.70984000   12.53172000    2.51536000     -0.243943    0.15293000    0.10668400
Ge   16.02167000   14.82394000    9.83859000      1.391424    0.91729300    0.20372200
Ge   16.95503000   21.58316000    3.41631000     -0.299732    0.12597600   -0.34542800
Ge   18.00232000   21.92326000   12.32698000      0.648067   -0.39044800   -0.37784200
Ge    0.08434000    1.14520000    2.73398000      0.480082   -1.12562500    0.20603900
Ge   22.83234000    2.05351000   10.36017000      0.794416    0.95164600   -0.69042400
Ge   22.94202000    8.94864000    3.03012000      0.013936    0.19558900   -0.10356700
Ge   21.95646000    8.76454000   11.48505000      0.987396    1.27470100    0.06629700
Ge    0.44149000   13.78012000    4.30737000      0.035018    0.07576300    1.35010000
Ge   23.62801000   15.64696000   11.52629000      0.172991   -0.44329400    0.48923700
Ge    0.23626000   21.50186000    3.87851000      0.823872   -0.68050100   -0.70700400
Ge   21.63051000   18.00601000   13.01072000     -0.926540    1.73387100   -1.05602800
Se    1.88108000    0.22376000   19.79943000      0.641978    0.36582300   -0.23691100
Se    1.57581000    2.18717000    9.82942000      0.024319    0.09446900    0.24128400
Se    1.08690000    7.32158000    1.63192000     -0.524663    0.69895200   -0.25355300
Se    1.14301000    7.36448000   10.66222000     -0.030496    0.48085600    0.29502100
Se    0.84416000   11.58659000    0.88263000     -0.253073   -0.32232200   -0.38784300
Se    2.54137000   14.02423000    8.87140000      1.386382   -1.19682800    0.30373100
Se    2.87608000   20.79537000    3.51680000     -0.327394    0.47325000   -0.23335200
Se    0.11172000   18.98662000   12.34835000      0.235753   -0.48666500   -0.14884400
Se    4.83491000    1.79321000    2.67704000     -0.303840   -1.12414200    0.15523900
Se    5.41481000    2.08825000   12.36858000     -0.618020    0.11706900    0.11250700
Se    8.38780000    4.78740000    4.21713000      0.105036   -0.02799200   -1.48781200
Se    8.76584000    8.88736000   10.88679000     -0.515132    0.09781400    0.22742400
Se    7.71862000   11.39461000    0.01190000      0.193063   -0.06218100    0.92644300
Se    6.59666000   14.84401000   11.77527000     -0.397294   -0.19137200   -0.13817800
Se    7.81188000   21.20121000    1.97234000     -1.522305    0.88085800    0.85441700
Se    8.83681000   20.92339000   11.92014000      0.337364   -0.00512700   -0.31292200
Se   14.05575000    0.72313000   19.69556000      0.356422    0.14162000    0.39214900
Se   13.97440000    2.51894000   11.67299000      0.188540    0.20307300   -0.02164600
Se   11.83875000    7.34298000   17.07293000     -1.349206    0.17732700    0.63704500
Se    9.54087000   10.49017000    8.10256000      1.245618   -0.11196200    0.40341000
Se   13.22437000   13.94340000    0.62435000     -0.081282    0.25181600    1.15876800
Se   13.95812000    9.30954000   10.32636000      0.064663   -0.21536300   -0.76342500
Se   15.76978000   16.70583000    1.94451000     -0.043077   -0.19740500    0.56937400
Se   12.30425000   19.23691000   11.05261000     -0.310190   -0.29494000   -0.04367200
Se   17.90314000    3.78330000    4.87675000     -0.171405    0.00425300    0.01875500
Se   13.76536000    4.29722000   13.36674000      1.012527   -0.62201000    0.13697000
Se   16.97534000    5.32515000   16.17859000     -0.542961    0.02306600    1.46149500
Se   18.41589000    4.14997000   14.20582000      0.683501   -0.44964100   -0.30016700
Se   19.37528000   10.04813000    0.70436000      0.175238   -0.53977200   -0.57285800
Se   17.03729000   16.84371000    8.66686000     -0.157467   -0.60469300    0.07151600
Se   20.30650000   17.61325000    0.71219000     -0.422858    1.03418300    0.17907000
Se   19.97067000   20.19977000   11.52610000     -0.214149   -0.06232200    0.37102900
Se    2.47091000    1.29974000    3.87823000     -1.326770    0.46668000   -0.56334500
Se    3.47536000    6.05057000   13.96816000      0.422428   -0.54134100   -0.40365000
Se    5.21313000   12.04978000    0.50081000     -0.157636    0.24188200    0.61566600
Se    4.13764000   11.89123000   10.75993000     -0.147487    0.13725100    0.14944000
Se    4.30596000   15.37110000    0.87797000      0.217338   -0.24529100    0.17039200
Se    3.09799000   16.42543000   11.50482000     -0.276152   -0.05643000    0.11790100
Se    5.63880000   22.74606000   19.01667000     -0.067859    0.62262100    0.59707900
Se    5.00010000   21.72563000   12.04490000     -0.419543    0.43111200   -1.07196200
Se   12.60318000    5.65286000    0.86925000      0.079529    0.26636900   -0.45573200
Se    8.69054000    2.94743000   10.33636000     -0.424814   -0.30562600   -0.51732600
Se   10.38186000   10.76153000    0.14170000      0.724162    0.18584100   -1.05683500
Se   11.54531000   11.97971000   11.88818000     -0.089755    0.50328700    0.48479500
Se   11.60334000   16.66669000    2.42281000     -0.397801   -0.43078900   -1.67361300
Se   11.34873000   15.55496000   13.69635000      0.849184   -0.63361300    0.09048700
Se   12.71574000   23.20629000   18.24014000     -0.809023   -0.66077900   -0.53521900
Se    9.50338000   23.33733000   12.21602000     -0.410773   -0.16888000   -0.38845200
Se   12.61698000    3.54190000   18.02543000      0.106557   -0.10779000   -0.49975100
Se   17.51266000    7.71345000    9.74005000      0.651988    0.20957200   -0.38682400
Se   15.38243000    7.07242000    0.67741000      0.176644    0.63158200   -0.59794200
Se   18.03103000   13.76139000   11.39236000      0.002986    0.14762500   -0.16259300
Se   18.67586000   15.11481000    2.38951000     -0.407239   -0.89929200   -0.34820500
Se   14.04625000   13.84071000    8.83156000     -0.242805   -0.03959500   -0.57723000
Se   17.32305000   22.84801000    1.08138000      1.038188    0.30421800    2.22338100
Se   16.48659000   21.59669000   10.47011000     -0.015798   -0.34854300   -0.05999700
Se   23.39527000    3.12379000    1.43056000     -0.059237    0.09794100    0.05852100
Se   22.18285000    4.47338000   10.37953000      0.348997   -0.35888600    0.07441700
Se   21.29679000    5.56617000    3.20358000      0.074985   -0.67041100   -0.28048100
Se   21.18770000   11.88633000   11.69627000      0.725963   -0.38262800   -0.04703600
Se   22.39995000   14.21585000    1.92332000      0.400760   -0.42047500   -0.16064400
Se   20.93307000   15.73169000   12.30293000      0.542074   -0.25665300   -0.76036300
Se   23.17803000   22.54270000    1.68255000     -0.395300    0.28755100    1.48885000
Se   22.04935000   22.27855000   15.49862000     -1.024409   -0.39182500    0.16004100
Se    4.51576000    4.50546000    9.89349000      0.571009    0.61726500    0.24878000
Se    4.00998000    5.04749000   17.38778000     -0.736837   -0.36544800   -0.07513900
Se    4.42773000   10.38686000    8.29654000      0.196160    0.83657500    0.35405100
Se    4.33889000    8.19565000   16.95386000     -0.762603    0.30291300   -0.61946000
Se    5.41284000   19.70445000    5.87766000     -0.280402    0.91920900    0.90568100
Se   22.62598000   16.30431000   19.27667000      0.716499   -0.42496000   -0.70210600
Se    1.06606000   22.93225000   11.44403000      0.022845   -0.73232000   -0.50820400
Se    2.71554000   20.81421000   17.77914000     -0.041653    0.02734300   -0.34990000
Se    8.10225000    3.46441000    6.98544000     -0.546708   -0.24819600    0.66956100
Se    5.29901000    5.20822000    0.39904000      0.202807   -0.47618000    0.72527800
Se    7.40837000   10.37882000    7.20543000     -0.669137   -0.15544600   -0.28572900
Se    4.14910000   10.21100000   19.27887000      0.165222   -0.42230500   -0.44511000
Se    6.20548000   17.93582000    9.52987000     -0.003520    0.05366100   -0.32129700
Se    6.39966000   17.37731000   18.01790000     -0.554444    0.50022400   -1.59130600
Se    9.07941000   19.22198000    7.56307000      0.386220    0.74006900    0.03290700
Se    8.47185000    2.25452000    0.89142000     -0.318680   -0.16502400   -0.51330400
Se   13.46393000    1.87358000    8.74641000     -0.159028    0.11491700   -0.18087600
Se    8.58662000    4.06242000   18.53760000      0.088756    0.55059200   -0.32140600
Se   11.10684000    7.00190000    9.86878000      0.295857   -0.29126000    0.21151700
Se   16.05430000   13.65699000   17.62368000      0.302952   -0.56050900    0.24839800
Se   13.38691000   16.97179000    7.78385000     -1.481387   -0.78558100    0.17870500
Se   15.99425000   16.94757000   17.50778000     -1.591948    0.21731600   -0.57438800
Se   14.51996000   23.13739000    7.12639000      0.625768    0.11496500    0.75148100
Se   17.49983000    1.76816000   17.07568000     -2.265794    1.02643000   -2.07951000
Se   17.27222000    3.63764000   11.21775000     -0.455374   -0.65631800   -0.71766700
Se   20.81994000    3.47496000   18.07023000     -0.298098    1.00276000   -0.69402800
Se   18.56983000   10.24333000   10.49824000      0.075293    0.13151400   -0.56739600
Se   19.40496000   10.37382000   16.00093000      0.269441   -0.12034900    0.32864200
Se   14.84335000   16.95503000   11.05004000      1.452856   -0.22438600   -0.69132300
Se   19.96703000   14.22076000   18.53866000     -0.263669   -0.35547100   -0.05846200
Se   19.52622000   21.71575000    8.51535000     -0.579199   -0.61913200    0.34121800
Se   18.73497000   19.02791000    2.27951000      0.851622   -0.06228700   -0.56749400
Se    5.93112000   23.56397000    8.99501000     -0.260395    0.18939000   -0.90849600
Se    3.03242000    2.47221000   19.89776000     -0.529309   -0.26299500   -0.56621600
Se    7.78688000    6.86279000   10.05496000     -0.763763    0.08375500   -0.65103900
Se    4.80163000    8.20721000    0.60206000     -0.448928   -0.20634800   -0.17956100
Se    3.16940000   16.85395000    4.80668000      0.199131   -0.07732100   -0.08995800
Se    6.55004000   12.78625000   17.40070000      0.107213    0.03593800   -0.53305000
Se    2.57327000   20.47210000    8.66501000     -0.292434   -0.46689100   -0.77656400
Se    0.75506000   18.96811000    0.71801000     -0.312250   -0.01416300   -1.12295700
Se   10.29751000    0.13661000    7.63816000     -0.023190   -0.21730100   -0.61993800
Se   11.67965000    3.54686000    1.46279000     -0.159623    0.40371400    0.97683200
Se   11.87485000    3.64601000    8.84370000      0.034032    0.35954500    0.17321400
Se    8.81082000    7.50356000    1.14185000     -0.106036    1.24052800   -0.42651900
Se   11.13936000   13.44940000    7.88941000     -0.076303   -0.58336100   -0.38250000
Se    9.31076000   15.18846000   19.39676000      0.026980   -0.55612200   -0.12133000
Se   12.88953000   22.29796000   10.30577000     -0.221641   -0.08378400    0.13299000
Se   12.19257000   14.59314000   17.20583000     -1.193487   -1.30820900    0.79257800
Se   18.11997000    0.92092000    8.67608000      0.742683    0.64156300   -0.28298100
Se   16.53743000    4.75882000    1.10564000      1.192393    0.28674100    0.23892900
Se   16.29453000    6.59090000    8.05836000     -0.666345   -0.14827600    0.60780100
Se   15.33410000    9.81564000   16.02496000     -0.036918   -0.08349900   -0.41269300
Se   14.58841000   11.59034000    8.20124000      0.022161   -0.04849600    0.89840900
Se   17.09170000   13.03629000    0.67249000     -0.912113   -0.64949100    0.10494000
Se   15.02378000   18.53652000    4.93160000     -0.552561   -0.22143400    0.19307500
Se   18.87352000   21.39568000   18.37795000      0.028073    0.17603700   -0.24884300
Se   22.34341000    0.42162000    8.58045000     -0.515261   -0.07084200    0.66647200
Se   22.92952000    1.25582000   16.00254000      1.101147   -0.01134200    0.79358500
Se   21.19416000    7.34856000    9.69802000     -0.522918   -0.30861400   -1.53689200
Se   23.16477000    6.58871000   18.39688000      0.335572   -0.10476900   -0.12738100
Se    0.52583000   10.99889000    7.84792000      0.097444    0.12333600   -0.13588500
Se   21.21090000    8.57101000   19.58682000     -0.222039    0.11002000   -0.19500900
Se   21.61376000   18.11984000    8.54940000     -0.161607   -0.64305100    0.10928200
Se   19.20840000   17.30042000   17.21659000      0.111213    0.46652800   -0.06762100
Se    2.30405000   23.57418000    9.51720000     -0.735456    0.01620900    0.41520400
Se    2.46584000   23.42800000   14.17666000     -0.218742   -0.51532200   -0.16640800
Se    2.42787000    7.60429000    8.23428000     -0.276220   -0.61054400   -0.13485500
Se    1.79791000    8.00181000   17.61538000      0.391254    0.12959400    0.66666900
Se    0.73111000   15.42742000    8.94084000     -0.302981    1.32792300   -0.69820600
Se    2.31162000   12.70761000   17.29080000      0.492905   -0.09449700   -0.18582700
Se    1.30739000   19.69987000    6.63401000      0.679749    0.26115300    0.94229900
Se   22.79880000   19.06523000   16.60253000      0.304071    0.61497400    0.00205900
Se    7.40989000   23.59698000    5.10015000     -0.647946   -0.24695900    0.22353100
Se    6.89917000    2.02607000   18.04822000     -0.117715    0.23799800   -0.19587500
Se   10.02501000    6.63257000    5.83268000     -1.787901   -0.20379300    0.29450500
Se    6.99120000    7.69860000   16.55900000      0.422270   -0.39124000    0.07303700
Se    7.40443000   14.00009000    8.41897000      0.229173    0.39027500   -0.27366500
Se    8.49971000   17.90727000   12.47922000      0.165722    0.36713900    0.48117400
Se    7.11360000   17.87127000    3.84717000      0.506172   -1.03196200    0.04021100
Se    8.37266000   17.02055000   16.83351000      0.645508   -0.40703600   -0.91857600
Se   14.26139000   21.93438000    4.59324000      0.390020   -0.29363500   -0.11644600
Se   13.77224000   23.15554000   15.59952000      0.919035    0.66286700   -0.65454100
Se   12.71864000    8.33845000    4.02446000      0.585929    0.21075600    0.39646300
Se   10.09956000    7.87097000   14.38101000     -0.318641   -0.58511400    0.11592700
Se   14.05664000   12.09231000    4.09659000      1.309018    0.07751400    1.08817300
Se   14.53977000   14.44722000   14.42911000      0.936177    1.44906000   -0.46740000
Se   12.47820000   18.57314000    4.76366000      1.139149    0.28863500    0.30914300
Se   15.44498000   19.80597000   19.17823000     -0.527841    0.21635900   -0.24789700
Se   18.68342000    1.20979000    4.30431000     -0.366440    0.55280600   -0.02506500
Se   18.96674000    0.98843000   18.41123000      2.360090   -1.30087200    2.07306500
Se   19.72586000    7.00432000    5.87912000     -0.047621   -0.38297800    0.72419200
Se   19.90298000    6.57299000   16.06204000      0.492676   -0.19232300    0.12198900
Se   19.66400000   12.41373000    5.04225000      0.293151   -0.47395600    0.44187000
Se   18.43139000   13.43426000   14.10318000      0.068492    0.11155600   -0.64077700
Se   18.93533000   18.68022000    5.79922000      0.445872    0.23168200   -0.29094400
Se   20.44676000   20.43464000   14.76973000     -0.033153    0.14158200    0.81963200
Se    5.89335000    7.19349000    6.29299000      0.189833   -1.01232700    0.41649100
Se    1.60716000    4.55243000   16.72308000      1.289487   -0.70677400   -0.59548100
Se    3.75049000    9.25907000    4.46089000      0.997496    0.38431100    0.18256500
Se    3.69500000   11.46294000   13.86162000      0.232719    0.59123900   -0.33179700
Se    3.09954000   14.47427000    4.95041000     -0.129390   -0.40136500    0.02326300
Se    2.68847000   16.82011000   18.22943000     -0.595388   -0.51453000   -0.33046900
Se    0.00709000   22.51354000    6.09966000      2.351098    1.04059500   -0.99774700
Se    3.26015000   20.50475000   13.36234000      0.560904    0.22424200   -0.11375100
Se   12.51545000    1.32140000    4.85985000      0.102324    0.39106600    0.32143100
Se    8.45187000    5.16892000   16.32988000     -0.092195   -0.33477000    0.47453400
Se   11.36510000   11.36527000    6.55342000     -0.574665    0.12229900    0.59611700
Se   10.45327000   11.80884000   17.41222000      0.390027    0.37393700    0.36662900
Se   10.50254000   15.31647000   10.21195000     -0.662157   -0.00627100    0.19949600
Se   11.44363000   19.43528000   18.88430000     -0.077705    0.29297300   -0.64966300
Se   10.92419000   21.73668000    4.11044000      0.270963    0.12140900    0.18515800
Se    8.26240000   20.43168000   18.54608000     -1.225863    1.19095200   -1.52905600
Se   13.61610000    4.86865000    5.87774000      0.472675   -0.18968600   -0.37469300
Se   15.26949000    5.19424000   17.89068000      0.181165    0.96241000   -0.49771100
Se   17.22397000    9.87395000    5.50456000      0.457884    1.23214900    0.84015400
Se   17.81208000    7.87788000   13.57353000      0.267299    0.01900600   -0.57822100
Se   17.46549000   13.48969000    5.94438000     -0.285629    0.19691900   -0.37030100
Se   12.91832000   18.19159000   15.67499000      0.407384    0.08731600    0.19326600
Se   16.39005000    0.39458000    4.34019000      0.135262    0.18418300   -0.53371600
Se   16.68161000    2.62229000   13.48617000      0.187727    0.82126900   -0.04936800
Se   22.40193000    3.98957000    7.36377000     -0.809786   -0.26317400   -0.56433000
Se   22.46515000    4.42823000   14.20266000     -0.061677    0.31889000    1.11756800
Se   19.10922000   11.08843000    8.29412000      0.063622   -0.03407900    0.98975800
Se   21.96669000   13.51327000   15.21143000      0.953986   -0.19848800    0.43951100
Se   20.88200000   14.61766000    7.35788000     -0.207390   -0.06084700   -0.11970100
Se   22.46315000   17.17539000   15.15741000     -0.930287   -0.66289700    1.99146100
Se   22.03780000   21.41038000    7.01651000     -2.056971   -0.84144500    0.77500700
Se   22.68634000   23.69430000   19.24222000     -0.044814    0.78238100   -0.96511700
Se    3.98644000    3.28425000    6.13349000      0.756486   -0.56297600   -0.34616000
Se    6.26832000    0.69359000   15.75626000     -0.256802   -0.24955300   -0.06730600
Se    2.95829000    5.76056000    3.44147000     -0.146604   -0.95068600   -0.31330600
Se    4.90689000    8.32400000   11.91355000      0.689582   -0.20441200   -1.34053900
Se    2.37050000   10.40983000    2.32893000      0.609353    0.19416200   -1.38467800
Se    3.85428000   14.93700000   14.59983000      0.328097   -0.43825000    0.25765200
Se    4.75724000   18.83550000    0.33664000     -0.184847    0.47389500    0.56455100
Se    4.60059000   18.34547000   13.18876000     -0.411181    0.38804600    1.12514700
Se    9.80482000    1.63707000    2.76363000      1.653069   -0.94495800    0.21193600
Se   10.93531000    1.48181000   15.01240000      0.420589    0.62878300   -0.77986400
Se   10.28022000   11.15592000    2.47966000      0.120389   -0.24095800    0.69347600
Se    8.89969000    9.20696000   17.16957000     -0.094959    0.22433000   -0.81578700
Se    8.45539000   12.80873000    4.75953000     -0.190740    0.21125800    0.75790600
Se   11.36447000   11.36301000   14.24711000      0.058076    0.11249900   -0.01605700
Se    9.79689000   20.22026000    1.47718000      1.197274   -0.37435900    0.18205900
Se   10.35262000   21.74461000   15.90056000      0.629891   -0.29332700   -0.55072700
Se   18.39153000    3.56860000    8.56609000     -0.216669   -0.18019900    0.29911900
Se   14.57323000    1.71986000   16.11710000      0.138162   -0.96806800   -0.14746000
Se   16.89995000    6.64600000    4.19327000     -0.590873    0.55734400    0.17470300
Se   14.01516000    7.25002000   13.83293000      0.319212   -0.02583700    0.21917400
Se   17.39338000   11.19649000    2.43260000      0.026309    0.82887000   -0.29896500
Se   17.24495000   18.66610000   14.72489000      0.610478   -0.31959400   -0.31090200
Se   15.72408000   16.29934000    4.57736000     -0.456213    0.97992800   -1.01427500
Se   16.49721000   20.80333000   13.86785000     -0.637503   -0.06298400   -0.03568100
Se   22.59953000    1.47295000    4.96854000     -0.574168   -2.29962300   -0.25611400
Se   22.37632000    1.54805000   12.62803000     -0.403721   -0.73901700    0.12063700
Se    0.35420000    8.45679000    5.22023000      0.839798   -0.41467400   -0.74008600
Se   20.99070000    7.66100000   13.28833000     -0.449187    0.09128500    0.66778900
Se   22.96285000   15.94545000    5.48399000      1.169472   -0.15100400   -0.42393000
Se    0.67972000   12.73341000   14.85586000     -0.729418    0.20626800   -0.34841300
Se   22.93538000   19.25786000    4.35543000     -0.154058    0.20181100   -0.46616500
Se   21.78743000   21.70895000   12.00081000     -0.927795    0.41747500   -0.13285000
Se    3.10466000    4.31002000    7.95486000     -0.640065    0.57563100    0.12318200
Se    2.38709000    3.99847000   14.23798000      0.021943    0.70387300    0.22859200
Se   22.12570000   11.48011000    4.36518000      0.071699   -0.54942300    0.01453400
Se    1.04280000    9.35936000   12.90926000      0.744032   -0.49764300   -0.29606900
Se    0.99929000   15.07331000    2.29454000      0.260100    0.40763700   -0.43751600
Se    0.81310000   16.58730000   14.43296000      1.306600    0.10413200   -1.19017100
Se    3.82483000   21.44552000    1.31001000     -1.066156    0.09496800    0.45693000
Se    4.82384000   18.60659000   15.78349000      0.211120    0.34408500   -0.70410100
Se   10.82645000    4.44706000    3.98442000     -0.092939   -0.27284000   -0.35499100
Se    7.31472000    3.04520000   13.30636000      0.488759    0.69329700    0.25004100
Se    6.76000000    9.64596000    3.73071000     -0.015156    0.48712600   -0.10332200
Se    7.38125000   10.54443000   13.49715000     -0.093734    1.81772200    0.57827900
Se    8.29995000   16.98629000    1.95846000     -1.139129   -0.03022400   -0.54029600
Se    9.19280000   15.61918000   14.02485000     -1.100090    0.42293400   -0.02070900
Se    7.81803000   21.10632000    8.42755000      0.305952    0.50122800    0.01487800
Se    7.23016000   21.65258000   14.85185000     -0.574199   -0.08844300    0.68592800
Se   15.23118000    1.77723000    2.54200000      0.089586   -0.79532000    0.39142000
Se   10.97881000    5.67368000   14.07492000     -0.074763   -0.15388300   -0.13882600
Se   14.39095000    9.32686000   19.43402000     -0.498666   -0.92209200   -0.21018900
Se   14.10029000   10.53553000   12.34258000      1.405322    0.76782500    0.90416800
Se    9.94549000   16.34026000    6.08518000     -0.005155    0.96732000   -0.25033100
Se   13.05515000   17.44533000   12.45080000     -0.546832    0.60194400    0.21995700
Se   14.18471000   21.48031000    2.11866000     -0.088560   -0.09537100    0.07071300
Se   14.79770000   22.89828000   13.25247000     -0.732827    0.42764200    0.63540800
Se   18.81633000    6.20071000    0.31200000     -0.472661   -0.36843800   -0.06378400
Se   14.42249000    5.62429000    9.57360000      1.214409   -0.42203100   -0.36817900
Se   20.69790000    7.81622000    3.47751000     -0.078122    0.11268700   -0.44686800
Se    0.15237000   12.62186000   11.77306000     -0.448600    0.95244900    0.52763300
Se   20.27950000   15.71353000    3.84262000      0.773293    0.58822400    1.14164300
Se   18.16414000   17.07667000   12.79316000     -0.185089    0.26559100    0.96672400
Se   19.69507000   22.06161000    4.12926000     -0.879936    2.29291000   -0.44695500
Se   18.41032000    0.52598000   13.14721000      0.162519   -0.09238200   -0.29307300
