384
23.69824000 23.69824000 19.89960000
Ge    5.88989000    6.05266000   12.47069000     -0.473315    0.03151800   -0.12846200
Ge    5.11499000    4.25811000    3.21708000     -0.137431    1.03970200    0.03920400
Ge    2.70023000   11.98792000    6.81744000      0.598842    0.37025400    1.39608000
Ge    8.80708000   14.09034000   17.03643000      0.903007    0.16078100   -0.06697500
Ge    5.02301000   15.70322000   10.25349000     -1.701339    0.53506400   -1.46473400
Ge    9.03749000   17.92616000   19.25000000      0.534049    1.07955400   -0.70932800
Ge    6.44705000    0.23248000   11.57722000      0.646778   -0.85446100   -1.01046600
Ge    5.44018000    2.81548000    0.47494000      0.646639   -0.18092700   -0.80772000
Ge    9.24323000    5.17917000   11.25532000     -0.154356    0.94129300    0.03953300
Ge   10.83355000    5.47705000   18.63045000      1.199285   -0.27766300    0.18404900
Ge   11.44207000    9.64244000   11.01485000      0.218696   -0.32630400   -0.21340200
Ge   13.73716000   12.70406000   18.58525000     -0.673874   -0.05355000   -0.18609200
Ge   10.81743000   17.41037000    9.10691000      0.895536   -0.03944600   -0.79933000
Ge   13.76038000   16.69721000    0.60692000     -0.694364   -0.69295100    0.15956800
Ge   11.28002000    0.29132000    9.84843000     -0.703976    1.13023900   -0.11816700
Ge   16.06277000   22.31755000   18.78773000      0.020760   -0.03482200    0.49874100
Ge   19.38087000    4.67739000   11.76483000     -0.156535   -0.37401600    0.52797200
Ge   19.65370000    8.51189000   17.41833000     -0.191522    0.34078800    0.52542900
Ge   20.49051000   13.48382000    9.92058000     -1.078684   -0.29366900    0.04323100
Ge   18.28962000   11.86619000   18.59963000      0.617661    0.31495200   -0.09556500
Ge   14.32519000   18.74705000    9.20084000      0.307067   -0.20650300   -0.27395700
Ge   18.21518000   16.37772000   19.50847000      1.525057    0.29558100    0.01587700
Ge   19.81505000    1.81779000   11.47177000      0.129013   -0.19708800   -0.39860200
Ge   19.10131000    4.15323000    2.74879000     -0.433368   -0.45566400   -0.58440700
Ge   23.36049000    6.10256000    8.65979000     -0.085619    0.17688300   -0.15612500
Ge    1.40918000    3.84584000    3.55179000     -0.360481   -0.38137200    0.24202500
Ge    1.95082000    9.77380000    9.68425000      0.219666    0.05474900   -0.00808600
Ge    0.20271000    9.19028000   19.77565000      0.347882    0.07293100   -0.31193100
Ge   22.03800000   15.70701000    9.29553000     -1.623108    0.79769600   -0.49296600
Ge    1.34775000   14.94614000   19.65702000      0.278605   -0.12601000   -0.84805500
Ge   20.46463000   23.25954000   10.13603000     -1.108503    0.63838400    1.27537600
Ge    1.28895000   21.11782000   19.58456000      0.208699    0.49631900    1.08856900
Ge    5.02856000    7.21838000    8.80494000     -0.092168    0.13927900    0.68254200
Ge    3.04278000    6.45388000   19.55980000     -0.564661    0.42909500   -0.03436700
Ge    1.82874000   10.65327000    4.88838000     -0.645713   -1.59853500   -1.37657500
Ge    4.57308000   12.78671000   15.85418000     -1.150909   -0.02581900    0.03254800
Ge    6.00072000   19.79752000    3.36727000     -0.548300   -0.75897300   -0.79362600
Ge    0.60074000   17.89183000   18.57208000     -1.064054    0.11603000   -1.77597300
Ge    5.44571000   20.14327000    8.57226000     -0.600969   -0.27682300    0.07982400
Ge    3.70608000   23.11740000   17.46850000     -0.403439    0.03509800   -0.00287000
Ge   10.88121000    2.44451000    6.58431000     -0.019371    0.27230900    0.32735700
Ge    7.33214000    9.15814000   18.88407000     -1.317222   -1.74824000    1.16358800
Ge    6.44581000   12.69662000    6.52949000     -1.083286   -0.69830700   -0.54785500
Ge    8.38879000    9.73301000    1.88300000      0.583350    0.47199700    0.29479700
Ge    7.35130000   18.00938000    6.77033000      0.202964   -0.78555900   -0.14565900
Ge    5.36198000   20.29630000   18.33439000      0.179750   -0.47899800    0.14998600
Ge   12.09171000   22.95759000    6.06173000      0.157901    0.22095700   -0.07060200
Ge   10.26927000    0.43214000   17.20890000      0.373334   -0.35564800   -0.32727200
Ge   12.24430000    6.84105000    5.91103000      0.104984    0.00793800   -0.14504000
Ge   14.17731000    7.86134000   17.50515000     -0.200222   -0.12386400    0.18425800
Ge   15.67966000   11.89020000    5.85431000      0.963336   -0.96612500    2.79204100
Ge   16.81465000   15.20897000   15.63716000      0.058593   -0.15423000   -0.56763000
Ge   12.68051000   16.04445000    4.63410000     -0.553872    0.25776600    0.06988700
Ge   15.15756000   19.54634000   16.46583000     -0.356765   -0.83555200    0.04789700
Ge   15.90986000    0.19117000    9.89461000      0.512403   -0.30002500   -0.40218500
Ge   17.91483000    4.17705000   18.32070000     -0.300837    0.01280200   -0.35496400
Ge   20.00914000    5.37401000    7.91200000      1.045181   -0.31047100   -0.08212700
Ge   21.81213000    5.34639000   16.62159000      1.472064   -0.11175600   -0.32910500
Ge   19.50509000    8.55732000    7.85883000     -0.131248    0.91810500    1.10910900
Ge   22.34496000   13.94435000   17.62643000      0.609236   -0.43230300    0.93909700
Ge   19.63006000   17.12424000    7.56693000     -0.050509   -0.60734400   -0.12876600
Ge   19.17163000   19.82788000   16.75501000     -0.358968   -0.94238000    0.38300400
Ge   20.28810000   23.37159000    6.63390000     -0.481246    0.61251400    0.08179400
Ge   19.32430000   21.38412000    1.16633000      0.502238   -0.39569400    0.68407200
Ge    6.52588000    2.57975000    8.76934000      0.482702   -0.08411200    0.41634000
Ge    3.74016000    2.44514000   17.63103000     -0.186472    0.36455600   -0.79097000
Ge    3.55511000    7.27081000    5.80826000     -1.007527   -0.63163800   -0.07873700
Ge    3.34449000    9.01761000   13.55439000      0.578579    0.04452900    0.61058600
Ge    1.36906000   17.11034000    6.56082000      0.255771   -0.32154100   -0.44630100
Ge    1.83477000   14.61547000   16.03064000      0.494048    0.82438700   -0.10434200
Ge   23.42228000   20.49583000   10.40692000      0.105408    0.30043000   -0.23160100
Ge    4.79516000   21.06887000   15.44110000     -0.677333    0.89493200    0.28944400
Ge    7.56654000    2.51904000    3.31058000      1.124194   -0.29898600   -0.67449200
Ge    8.35821000    2.34559000   15.71657000     -0.114815    0.74164700   -0.48755700
Ge    9.11027000   10.27327000    5.29782000     -0.629323   -0.00614700   -0.42686500
Ge    8.53019000   11.29333000   15.78903000      0.029179   -0.19028200   -0.46708800
Ge    9.18933000   14.20319000    6.77356000      1.326062    0.84111700   -0.10416700
Ge   14.36716000   12.49598000   16.00803000     -0.446216    0.12200800   -0.39093300
Ge    8.34750000   21.54906000    4.46063000      0.343943   -0.80271500    0.11124400
Ge    8.60516000   19.69922000   15.89930000      0.448797    0.88046700    0.25936300
Ge   14.54495000    2.24514000    6.46447000     -0.250826   -0.68257300   -0.09181700
Ge   12.68479000    3.02442000   15.60139000      0.832293    0.44610900    0.72156500
Ge   15.32235000    8.56723000    4.53048000      0.313356    0.31802000    0.13394500
Ge   15.64573000    9.00376000   13.81987000      0.702958    0.64834400   -0.58835300
Ge   16.47301000   13.41121000    3.48515000     -0.551523    1.65270400    0.67792200
Ge   13.94522000   15.97968000   16.24226000     -3.048653    0.30747800   -1.05382500
Ge   13.28515000   19.26458000    0.92309000     -0.140639    0.22990700   -0.71448900
Ge   10.24347000   21.78309000   19.54184000     -0.306047   -1.13018600   -0.16133500
Ge   22.74058000    3.87089000    4.96334000     -0.009859   -0.41123500   -0.64457000
Ge   20.98867000    2.37721000   14.89470000      0.765104    0.70987100    0.13274000
Ge   22.33453000    9.93030000    6.58140000      0.383022    0.19999600   -0.68903100
Ge   19.41003000    9.71704000   13.55160000      0.670346    0.22215200   -0.07175200
Ge   22.54323000   16.59942000    2.68178000     -0.418054    0.82460300   -0.90546000
Ge   19.64597000   15.49509000   14.37248000      0.833611    2.15357500    1.00297900
Ge   20.65664000   20.01981000    5.01900000      1.201718    1.96231500   -0.40328000
Ge   20.95969000   23.51871000   17.43930000      1.557850   -0.44858800    0.16859700
Ge    6.22801000    4.66589000    5.91168000      0.370802   -1.17239800   -0.71739400
Ge    4.05738000    1.22612000   14.73832000     -1.478421    0.45895900   -0.63130900
Ge    4.56289000   11.72972000    3.10896000     -0.003425   -0.27769000   -0.11268300
Ge    7.63314000    8.21027000   12.92856000     -0.145403   -0.21516200    1.20929800
Ge    6.13354000   16.61147000    0.38514000     -0.837623    0.63800600   -0.47827300
Ge    2.54004000   13.82370000   11.55403000     -0.062584   -0.05280100   -0.63131500
Ge    5.23024000   22.53144000    5.88857000     -0.773499   -0.29013800    0.60667700
Ge    6.57666000   20.12238000   13.01716000      0.556981    0.00629800   -0.39879300
Ge   15.60317000    4.48449000    3.65413000      0.300287    0.49450400    0.49110500
Ge   12.65075000    0.18622000   12.26179000      0.670163    0.58678200    1.38246600
Ge   11.82216000    8.27029000    0.14952000     -0.260457   -0.01775700   -0.48698200
Ge   12.22498000    9.01494000   13.39151000      0.066431   -0.03423500   -0.07994300
Ge   10.65675000   14.40507000    1.26966000      1.511932   -1.21961900    1.76406200
Ge    8.27201000   16.30767000   10.75138000     -1.003949    1.06071300    0.20942300
Ge   13.23660000    0.05783000    2.27853000     -0.436856   -0.00672000   -0.34533700
Ge   11.14160000   21.60102000   13.04625000      0.797620    0.20596500    1.27802000
Ge   23.09880000    2.62657000   18.23161000      0.007293   -0.60135900    0.09408800
Ge   11.91915000    5.02615000   11.73857000     -0.212796    0.52530900   -0.13983400
Ge   17.62877000    8.22101000   19.50221000      0.674975   -0.21120700    0.04543700
Ge   12.99920000    7.28578000    8.41019000      0.051410    0.20548300    0.42010800
Ge   19.82675000   12.39714000    2.49174000     -0.376074    0.63925400   -0.02247100
Ge   16.20506000   15.15662000    9.80605000     -0.073500   -2.36027200   -0.33088500
Ge   17.09507000   21.43352000    3.32788000     -0.090078    0.49321700   -0.20175600
Ge   18.13702000   22.05534000   12.44023000      0.379308   -0.95222100    0.45994600
Ge    0.09804000    1.21262000    2.65599000      0.007155   -0.62226600    1.51001200
Ge   22.90886000    2.29316000   10.26120000      0.802232   -0.61439500    0.55978000
Ge   22.84693000    8.76674000    2.93322000      1.374689    0.67746400    0.27991000
Ge   22.27503000    8.77231000   11.27537000      0.003578    0.47800000    0.98685300
Ge    0.49523000   14.05511000    4.63291000      1.436787   -2.34330500   -0.75753100
Ge   23.56583000   15.55151000   11.42164000      0.390061   -0.25973100    1.09947300
Ge    0.21627000   21.48257000    3.85652000      0.974670   -0.04790800    0.45113400
Ge   21.50562000   17.99484000   12.74690000     -0.546572    0.73663200    0.54420800
Se    2.03224000    0.27694000   19.74149000      0.031369   -0.35548800    0.18154300
Se    1.63968000    2.20558000    9.92344000     -0.148507   -0.41929300   -0.03751500
Se    1.01801000    7.35865000    1.41178000     -0.665287    0.56103900    0.12532400
Se    1.33147000    7.36864000   10.65152000     -0.425175    0.29488200   -0.28063900
Se    0.69877000   11.76960000    0.88471000      0.121388   -0.91987100    0.06627800
Se    2.39269000   13.86012000    8.83087000      0.557032   -0.18338000    0.84825200
Se    2.76048000   20.77777000    3.35232000     -0.464330    0.09549900    0.63229600
Se    0.06927000   18.84826000   12.32380000      0.510586    0.02482200   -0.29344000
Se    4.90107000    1.79145000    2.63674000     -0.005703    0.03032800    0.90587700
Se    5.15090000    2.11781000   12.49388000      0.149736    0.68206500    0.57660100
Se    8.58830000    4.81798000    4.11715000     -1.512717    0.12465000   -0.75135800
Se    8.84799000    9.00644000   11.05632000     -0.574665    0.06886500   -1.22815800
Se    7.69714000   11.32916000   19.89512000      0.383460    1.01249200    1.02268900
Se    6.48009000   14.92451000   11.80601000      1.250886   -0.66050400    1.45291300
Se    7.52316000   21.06760000    1.94320000      1.106296    0.46105900   -0.05382900
Se    9.01542000   20.97899000   12.11795000     -0.821621   -1.68632400   -1.00332900
Se   13.88999000    0.62052000   19.61395000      0.864039    0.20864200    0.63631500
Se   14.00954000    2.43496000   11.69299000     -0.087102    0.09416000    0.20876000
Se   11.67719000    7.43776000   17.05520000      0.368214    0.23365100    1.18519300
Se    9.69923000   10.53029000    8.15249000     -0.117612   -0.54493500    0.04664600
Se   13.16700000   13.78852000    0.72485000      0.007290    0.22483000    0.52980100
Se   13.95127000    9.23421000   10.34510000     -0.235523    0.00159600   -0.32927100
Se   15.75992000   16.40362000    1.96201000     -0.027775    0.21659900    0.39990900
Se   12.27614000   19.26866000   10.90028000      0.014391   -0.92220600    0.31514000
Se   17.90628000    3.62684000    4.95984000     -0.125624    0.36927000   -0.10056600
Se   13.70772000    4.16841000   13.41689000      0.230892   -0.64263300    0.13428300
Se   16.69431000    5.49306000   16.39747000      0.120260   -0.19265000    0.23968200
Se   18.59415000    3.84927000   14.31490000      0.317299    0.85708000   -0.54374600
Se   19.51447000    9.80946000    0.77851000     -0.691801    0.47503400   -0.09579800
Se   17.05901000   16.85898000    8.56979000      0.584554    1.17286100   -0.66937500
Se   20.32787000   17.81646000    0.59771000     -1.052144    0.09020000    0.23739400
Se   19.92303000   20.18869000   11.42930000     -0.293405   -0.59904000    0.46387600
Se    2.32273000    1.21916000    3.80791000     -0.648866    0.44289700   -0.59486700
Se    3.41576000    6.08258000   13.84683000      0.355459   -0.16297600   -0.24091600
Se    4.99739000   12.11008000    0.53267000      0.219512   -0.07377300   -0.08682500
Se    4.01270000   11.82099000   10.72633000      0.161467    0.23950600   -0.14560500
Se    4.32691000   15.19734000    0.73999000      0.077167   -0.54583600    0.47122300
Se    2.81129000   16.44838000   11.38409000      0.532957   -0.67665900    0.14966200
Se    5.59339000   22.60821000   18.94616000      0.191368    0.52684600    0.64220900
Se    5.08521000   21.80172000   11.82280000     -0.154044   -0.16772400   -0.45373500
Se   12.68511000    5.74994000    1.14680000     -0.135736   -0.12199100   -0.49936400
Se    8.84640000    3.07751000   10.40713000     -0.644330   -1.26116000   -0.77290000
Se   10.38270000   10.83176000   19.86938000      0.453136    0.22335800   -0.33005200
Se   11.55782000   12.00205000   12.17180000      0.041106    0.83767800   -2.19355200
Se   11.56900000   16.61020000    2.14583000      0.627201   -0.04589700    0.20920900
Se   11.28184000   15.63006000   13.71087000     -0.466195   -0.55894200    0.35516900
Se   12.54927000   23.07661000   18.23537000     -0.839374   -0.58703500   -0.80155700
Se    9.56156000   23.23612000   11.94972000     -0.235349    1.43990600   -0.26979500
Se   12.41682000    3.49434000   18.04750000     -0.223923    0.72982900   -0.25822200
Se   17.56215000    7.74576000    9.76106000      0.958305    0.43720400    0.26409700
Se   15.47160000    7.19875000    0.89695000      0.360977    0.08509500   -0.28725300
Se   18.00927000   13.75873000   11.10174000     -0.043368    0.25813100   -0.18672000
Se   18.59520000   15.03968000    2.50250000      1.346397   -0.27481400    0.07638200
Se   13.99970000   13.98508000    8.56192000      0.891197   -0.50962200    0.16203500
Se   17.35514000   22.98469000    1.19285000     -0.199847   -0.67224300    0.17466000
Se   16.63097000   21.52950000   10.72315000     -0.723770    0.66464700   -1.09972900
Se   23.25835000    3.12096000    1.43749000      0.310654    0.26034400    0.24555800
Se   22.52229000    4.57116000   10.42976000     -0.315022    0.53258000    0.96079000
Se   21.23471000    5.55476000    2.84343000     -0.041680    0.08761300    0.52538800
Se   21.33957000   11.86600000   11.72104000      0.580404   -0.68415100    0.21727000
Se   22.35335000   14.24686000    1.79579000      0.886439   -0.22806400   -0.02261400
Se   20.89412000   15.54731000   12.30220000      0.925751   -0.23335900   -1.33519400
Se   23.11226000   22.71280000    1.87931000     -0.407044   -0.16081700    0.00009100
Se   22.07198000   22.27514000   15.56934000     -0.913025   -0.02548700    0.33949300
Se    4.38285000    4.48232000    9.84379000      0.454659    0.42794300    0.03142800
Se    4.17141000    4.88525000   17.57440000     -0.402575   -0.10724500    0.10915000
Se    4.66606000   10.38734000    8.29489000     -0.657442    0.45278200    0.09328300
Se    4.24108000    7.88213000   16.72217000     -0.671518    0.39525800   -0.58578600
Se    5.50486000   19.77493000    5.89842000     -0.158984    0.41019100    0.81459200
Se   22.63769000   16.18471000   19.12340000      0.451123    0.07939200   -0.11789500
Se    0.83137000   22.87254000   11.08400000     -0.231007   -0.95638500    1.09121900
Se    2.71408000   20.78966000   17.73505000      0.077537   -0.41054600   -0.99004600
Se    8.14682000    3.47326000    7.06470000     -0.542648    0.11800600    0.01778100
Se    5.31953000    5.39127000    0.31360000      0.629718   -0.82811300    0.57883000
Se    7.28282000   10.40437000    7.30625000      0.235240   -0.32689600    0.36552900
Se    3.89163000   10.28225000   19.34845000     -0.026120    0.13711600   -0.48616900
Se    6.25272000   17.77611000    9.22995000      0.112378    0.00509100    0.09872000
Se    6.49434000   17.37011000   17.85966000     -0.391215   -0.62123500    0.74373700
Se    9.12181000   19.36408000    7.88397000      0.434147   -0.43004700   -0.44861200
Se    8.54081000    2.22170000    0.77145000      0.015995   -0.25221300    1.19823900
Se   13.36901000    1.68998000    8.74237000     -0.052718    0.64714900   -0.41900900
Se    8.68675000    4.17896000   18.47298000     -0.468022   -0.18696200    1.00761700
Se   10.94629000    6.84577000    9.64216000      0.548711    0.00321400    0.17092800
Se   16.10480000   13.60310000   17.59302000      0.302023   -0.05999500   -0.15236500
Se   13.20075000   17.05608000    7.75097000     -0.792522   -0.01781400    0.86110100
Se   15.70468000   16.99928000   17.22515000      1.213631    0.95592200    1.46953400
Se   14.72323000   23.15529000    7.07467000     -0.122010    0.13683600    0.43686800
Se   17.45774000    1.83865000   16.99534000      0.476753   -0.53578000    0.52435600
Se   17.16510000    3.64530000   11.17656000     -0.326818   -0.21668400   -0.21354300
Se   20.71149000    3.64616000   17.99475000      0.567645   -0.26456700   -0.31787500
Se   18.45639000   10.12595000   10.54611000     -0.094026    0.30328100   -0.09259200
Se   19.68413000   10.48685000   16.01923000      0.071382   -0.46777000    0.02524500
Se   14.99163000   16.88480000   10.93136000     -0.038779    1.14425600    0.71925400
Se   20.14959000   14.14053000   18.57163000     -1.540702   -0.27684000    0.31753100
Se   19.60260000   21.66597000    8.64373000     -1.029984   -0.49390700   -0.72014300
Se   18.72900000   19.05426000    2.24054000      0.557434    0.10184100   -0.93227300
Se    6.02347000    0.11719000    8.74589000     -0.072353    0.32939600    0.57893200
Se    2.84252000    2.49396000    0.04052000     -0.203822    0.26171600   -0.21316100
Se    7.73629000    6.85617000    9.97276000     -0.250369    0.10109000    0.25438200
Se    4.64480000    8.38346000    0.62810000      0.277088   -0.50864000   -0.25232800
Se    3.30618000   17.00046000    5.00386000     -0.439589   -0.23402700    0.53295300
Se    6.61687000   12.77638000   17.24222000     -0.164026   -0.34966100   -0.04940900
Se    2.73373000   20.27543000    8.79414000     -0.278108   -0.24216300   -1.05198200
Se    0.74530000   18.94474000    0.71205000     -0.090305    0.59842500    0.84101000
Se   10.06201000    0.17839000    7.69116000      0.185833   -0.21400100   -0.57405300
Se   11.67492000    3.61564000    1.46699000     -0.161019    0.57412300    0.84085900
Se   11.73916000    3.47181000    9.09412000      0.144313    0.08925300   -0.66245600
Se    8.84243000    7.62288000    0.82434000     -0.235179    0.43700100   -0.47955700
Se   11.17739000   13.42026000    7.98253000      0.294563   -0.54908100   -0.35488000
Se    9.49297000   15.07071000   19.38465000     -1.518742    0.66037400   -1.96308500
Se   13.07222000   22.51459000   10.34285000      0.740240   -1.79899100   -0.78679600
Se   12.12239000   14.48318000   17.05996000      1.270323   -0.12383500   -0.00856300
Se   18.18650000    0.97672000    8.59537000     -0.454022    0.55817600   -0.05001200
Se   16.83626000    4.99864000    1.30669000      0.623869    0.09616700   -0.08752400
Se   16.28014000    6.76642000    8.10384000     -0.503079   -0.27676400   -0.59700900
Se   15.44813000    9.53365000   16.13807000      0.058560    0.80480700    0.43096000
Se   14.59293000   11.59797000    8.33573000      0.312732    1.19095100   -0.96725300
Se   17.08604000   12.91864000    0.65049000     -0.646252    0.16012900   -0.63253700
Se   15.02981000   18.58599000    4.97975000     -0.681686   -0.37185300   -0.14197100
Se   19.03810000   21.42245000   18.55523000      0.087237   -0.23594700   -1.27268700
Se   22.14782000    0.44322000    8.86937000      1.073730    0.60682500   -1.42759300
Se   23.00126000    1.13834000   16.08753000     -0.152048    0.19324800    0.31532900
Se   21.10475000    7.37546000    9.58509000     -0.004415   -0.39270700   -0.67279400
Se   23.12491000    6.60734000   18.29864000      0.351322   -0.31588400   -0.36497200
Se    0.44772000   11.24827000    7.90168000     -0.120985   -0.26729500   -0.09765800
Se   21.29072000    8.54701000   19.65483000     -0.092286   -0.43463800   -0.75243700
Se   21.66876000   18.15034000    8.44718000      0.122671   -0.39223800    0.49054700
Se   19.25403000   17.39460000   17.14361000     -0.035865   -0.11063000    0.29769900
Se    2.15093000   23.53796000    9.34710000      0.189457    0.49383600   -0.31065400
Se    2.43593000   23.34303000   14.02755000      0.449235    0.49597600    0.05783100
Se    2.38822000    7.60670000    8.23100000     -0.060168   -0.18986800    0.24574100
Se    1.87373000    7.90812000   17.49149000     -0.035163    0.08627500    0.39267100
Se    0.58623000   15.47783000    8.59526000      1.946533    0.46854200   -0.88132300
Se    2.34232000   12.58050000   17.50896000      0.615846    0.19743400   -0.24276300
Se    1.56288000   19.52618000    6.52096000      0.214347    1.27697100    1.58226000
Se   22.64621000   19.10978000   16.51178000      1.162959   -0.26250200    0.52106900
Se    7.21881000   23.54746000    5.24189000      0.438447    0.81959700   -0.47720900
Se    6.83876000    1.85532000   17.88956000     -0.254281    0.25802700    0.34230700
Se    9.80142000    6.73423000    5.74322000      0.576586    0.08501400    0.20292600
Se    6.86171000    7.95534000   16.59599000     -1.010237   -0.88895500   -0.25682800
Se    7.46459000   13.99391000    8.25444000     -0.559188    0.63160600    1.28903000
Se    8.50433000   18.06871000   12.66119000     -0.364193   -0.51491100   -0.08285100
Se    7.44484000   17.76423000    3.72159000     -0.468992    0.26907300    1.09485400
Se    8.47821000   16.96081000   16.69462000      0.180635   -0.39907100   -0.29779800
Se   14.37247000   21.90293000    4.69384000     -0.038852   -0.33951300   -0.08844400
Se   13.98857000   23.19267000   15.59545000      0.327530   -0.35366800   -0.57594100
Se   12.75424000    8.33071000    4.03546000      0.682042   -0.02130000    0.65134800
Se   10.04996000    7.94015000   14.29651000      0.238807   -0.83697700   -0.07297800
Se   14.12369000   11.84581000    4.25099000     -0.559482    0.34071200   -0.92885200
Se   14.45358000   14.64199000   14.21998000      1.048737    0.32539700    0.51696900
Se   12.54227000   18.56749000    4.63405000      1.055933   -0.17241700    0.00731100
Se   15.23239000   19.81175000   19.04102000      0.042087    0.61075500    0.21802800
Se   18.55742000    1.21691000    4.49466000      0.592475    1.00343200   -0.27253700
Se   19.19119000    1.08154000   18.52812000     -0.902598    0.43529600   -0.39584700
Se   19.68390000    7.07255000    6.05207000      0.002862   -0.87642300   -0.41668700
Se   19.86517000    6.47715000   16.13348000     -1.123880    0.78094600   -0.83613000
Se   19.76576000   12.47683000    4.97095000      0.700247   -0.52392500    0.80109700
Se   18.40936000   13.71767000   13.92495000     -1.443699   -2.39880700   -0.84258500
Se   19.02645000   18.64134000    5.60438000     -1.274480   -1.09977900    0.65702300
Se   20.52096000   20.31181000   14.87328000      0.333574    0.64029100   -0.33968200
Se    5.95694000    7.05358000    6.17160000      0.486656    0.21086400    0.47096200
Se    1.60417000    4.05027000   16.47044000      0.913780   -0.12565000   -0.22897900
Se    3.83714000    9.12048000    4.29606000     -0.003521    1.12117300   -0.00667500
Se    3.68999000   11.54740000   13.85802000      0.240193   -0.31492800   -0.19733400
Se    2.96764000   14.65036000    4.97287000      0.299460   -0.58456000    0.11018900
Se    2.66774000   16.87955000   18.14733000     -0.283375   -0.80322100   -0.10818700
Se    0.26198000   22.38959000    6.17038000      0.326071   -0.00961300   -0.74186600
Se    2.97229000   20.29750000   13.09576000      0.641985    0.02021300    0.18528500
Se   12.64124000    1.42100000    4.77856000     -0.431801    0.28285600    1.05866000
Se    8.59366000    4.97766000   16.30070000     -0.133900   -0.06583100   -0.62142800
Se   11.21396000   11.33435000    6.47814000      0.801712    0.35389600    0.85983000
Se   10.41052000   11.84363000   17.57969000      0.165046    0.52772100   -0.51296200
Se   10.38097000   15.27705000   10.44394000      0.790980   -0.36239800   -0.13275800
Se   11.47163000   19.52624000   18.91268000      0.172837    0.19566900    0.45662400
Se   10.85996000   21.85328000    4.23917000     -0.233654   -0.09935500   -0.09047600
Se    8.09518000   20.32845000   18.33671000      0.253052   -0.08739600   -0.13543100
Se   13.79576000    4.86252000    5.83166000      0.192112    0.00568100   -0.46339800
Se   15.26545000    5.32402000   18.24634000     -0.385423    0.57101700   -0.26893300
Se   17.28726000    9.91529000    5.57259000     -1.303036    0.12569400   -0.35294400
Se   17.82470000    7.90059000   13.52248000     -0.855545   -0.04119000   -0.28167800
Se   17.52602000   13.52000000    6.02433000     -0.588009    0.09589700   -0.63399700
Se   12.98705000   18.32085000   15.63041000      0.268807   -0.61904200    0.19235200
Se   16.38998000    0.43173000    4.36656000     -0.597349   -0.68100700    0.29787500
Se   16.80014000    2.55736000   13.38655000     -0.699016    1.08083000   -0.03251300
Se   22.20183000    3.77468000    7.31127000     -0.697580    0.95723200    0.22495900
Se   22.46795000    4.48178000   14.19859000     -0.824840   -0.12418100    1.78706400
Se   18.96357000   11.18446000    8.46134000      0.204878   -0.35087900    0.58955600
Se   22.22091000   13.69889000   15.22130000     -0.450619   -0.15231400   -0.43675600
Se   20.88282000   14.60081000    7.43505000     -0.711748    0.25410900    0.25577300
Se   22.46530000   17.08956000   15.30394000     -0.193795   -0.03577600    0.30885100
Se   21.82198000   21.46203000    6.98471000      0.632416   -0.47926000    0.48959300
Se   22.86162000    0.10199000   19.32472000     -0.553978    0.63541900   -1.31767500
Se    4.07559000    3.22332000    6.18127000      0.492004   -0.07235200    0.19011100
Se    6.16935000    0.74056000   15.75447000      0.674372   -0.88634200    0.22901600
Se    2.86416000    5.87976000    3.42575000      0.710085   -0.54919700    0.01316200
Se    4.97416000    8.29680000   11.73363000     -0.256591    0.19062700   -0.12606000
Se    2.31605000   10.50183000    2.27473000     -0.470873    0.61309800    0.50575500
Se    4.01426000   14.92982000   14.81288000     -0.217588   -0.27382200    0.28365400
Se    4.75906000   18.76606000    0.42861000      0.285771    0.05566300    0.40375900
Se    4.51262000   18.48365000   13.53608000     -0.627235   -0.36840000   -1.36701300
Se    9.87887000    1.32106000    2.92866000     -1.038228    0.36692300   -0.82278000
Se   11.02866000    1.56502000   14.92941000     -0.764997   -0.58588900   -0.32409200
Se   10.36841000   11.18065000    2.49016000     -0.293271   -0.72361600    0.12070600
Se    8.87797000    9.09266000   17.11459000      1.613105    0.73672100   -1.11748700
Se    8.48525000   12.81193000    4.97359000     -0.017009    0.22265800   -0.86490400
Se   11.40673000   11.38436000   14.27605000     -0.171986   -0.96397100    2.15278900
Se    9.79371000   19.89581000    1.35194000     -0.368687    0.82564500    0.10311400
Se   10.36596000   21.85464000   15.87369000      0.264516   -0.11669000   -0.26057300
Se   18.32290000    3.75974000    8.46908000     -0.554398   -1.09299100    0.55523900
Se   14.71328000    1.58148000   16.23970000     -0.156658    0.49026300   -0.00362600
Se   16.86511000    6.86886000    4.07644000     -0.462870   -0.70631000    0.12494400
Se   14.12004000    7.30134000   13.72390000     -1.592363   -0.98395700   -0.03583000
Se   17.25788000   11.40560000    2.47952000      1.049139   -1.42188200   -0.19000400
Se   17.48702000   18.69881000   14.66417000      0.086921   -0.09172900    0.06743700
Se   15.58097000   16.24779000    4.53056000     -0.331802    0.93834500   -0.70843000
Se   16.48891000   20.85278000   14.00192000      0.239531    0.03098800   -0.36248100
Se   22.59912000    1.37368000    4.99285000      0.050868    0.58760400   -0.78240500
Se   22.01302000    1.61109000   12.68831000      0.332306   -0.66662800   -0.94830100
Se    0.36113000    8.38936000    5.25443000     -0.229520    0.77969700   -0.23560800
Se   20.88909000    7.69767000   13.14237000      0.529381    0.45579600   -0.15248500
Se   23.08361000   15.90789000    5.21692000     -0.742033    2.36250500    1.30002100
Se    0.65144000   12.70544000   14.91484000     -0.000572   -0.41532800   -0.59554500
Se   22.89254000   19.31183000    4.45378000     -0.021809   -0.41730900   -0.72654800
Se   21.56606000   21.81195000   11.84348000      0.653096   -0.30350500    0.21635200
Se    3.08030000    4.50276000    7.89538000     -0.380625    0.26954500   -0.35507700
Se    2.35049000    4.01206000   14.13007000      0.098531   -0.12554900    0.39169400
Se   22.28314000   11.63398000    4.50668000     -0.349338   -0.75170900    0.33217700
Se    1.13405000    9.36098000   13.02138000     -0.627219   -0.05745500   -0.26060200
Se    1.13548000   15.06650000    2.26637000     -0.469140   -0.57051400   -0.21204600
Se    0.84658000   16.40731000   14.35470000      0.245076    0.15406700   -0.14474700
Se    3.56339000   21.64311000    1.34643000     -0.565194    0.06282900   -0.41771200
Se    4.87907000   18.65983000   15.82115000      0.297630   -0.28572500    0.64788200
Se   10.85286000    4.53400000    4.08835000      1.229013   -0.67473900   -0.54684900
Se    7.36607000    2.98924000   13.22112000     -0.385027   -0.13347200   -0.10278800
Se    6.80276000    9.60816000    3.54075000     -0.282021    0.38805600    0.38644600
Se    7.45992000   10.59562000   13.45007000      0.283445    0.08973800    0.36718900
Se    8.16666000   17.00930000    1.68105000     -0.012817   -0.77302900    0.05285600
Se    9.03710000   15.49426000   14.14358000      0.451635    0.36747600   -0.29336400
Se    7.73196000   21.14241000    8.28147000     -0.219063    1.73667100    0.69987000
Se    7.20891000   21.67747000   14.91488000     -0.632953   -0.37110600    0.19644500
Se   15.30210000    1.56006000    2.56595000      0.409349    0.26497800   -0.39871900
Se   10.90619000    5.63286000   14.17423000     -0.010256    0.43153800   -0.22118900
Se   14.23782000    9.46518000   19.47267000     -0.089183   -0.76286200    0.07089000
Se   14.25602000   10.61891000   12.27414000      0.768020    0.21285000    0.65301000
Se    9.98630000   16.45263000    6.33122000     -0.389994   -0.15593700    0.01019300
Se   12.99573000   17.39023000   12.29342000     -0.338118    0.63337900   -0.02869900
Se   14.09142000   21.35734000    2.07305000      0.434557   -0.06081800    0.51069300
Se   14.94031000   22.90735000   13.22454000     -0.501142    0.37603300    0.65132600
Se   19.02049000    6.09247000    0.03086000     -0.647757    0.59070300    0.16867600
Se   14.63241000    5.62806000    9.35699000     -0.267800    0.03717200   -0.23852300
Se   20.77224000    7.79327000    3.58049000     -0.704890   -0.48207100   -0.36576400
Se    0.00342000   12.51142000   11.93255000     -0.355137    0.67116200    0.06527900
Se   20.50128000   15.89490000    3.93711000     -1.578265   -0.49318400    0.26503400
Se   18.21201000   17.19870000   12.92407000      0.041273    0.32998600    0.49378400
Se   19.78698000   22.18072000    4.00451000     -0.234829   -0.28814600    0.13535500
Se   18.45430000    0.76875000   13.27069000      0.056984   -1.06772700    0.00688000
