384
23.69824000 23.69824000 19.89960000
Ge    5.76588000    6.15918000   12.73438000     -0.300212   -0.38060400   -0.85668300
Ge    5.23226000    4.72441000    3.53330000      0.055549   -0.55464400   -1.32119500
Ge    2.46153000   12.08944000    7.04040000      0.703630   -0.57542300   -1.10447600
Ge    8.94149000   14.19110000   17.06429000     -0.003257   -0.37492200   -1.37554300
Ge    4.85628000   15.76229000   10.32089000      0.371061   -0.49410000    0.41134600
Ge    9.33550000   17.78979000   19.24055000     -0.328906    0.73394500   -0.53819400
Ge    6.35507000    0.14701000   11.78335000      0.316470    0.23587800   -0.58014000
Ge    5.46369000    2.90478000    0.48134000     -0.167356   -0.58554000    0.04065900
Ge    9.41907000    5.40532000   11.09653000     -2.186059   -0.51280800   -0.72795700
Ge   10.84581000    5.60431000   18.96943000      0.276709   -0.43564700   -0.08436800
Ge   11.25823000    9.57345000   10.73386000      0.680610    0.73736700   -0.46121300
Ge   13.50474000   12.70404000   18.60282000     -0.042904    0.01256100    0.24416700
Ge   10.93303000   17.37382000    8.88338000     -2.568376    0.26945100    2.17697500
Ge   13.73405000   16.76427000    0.55837000      0.435530   -0.36866500   -0.20116600
Ge   11.21001000    0.50770000    9.77718000     -0.190127   -0.54304500   -0.29499400
Ge   15.85475000   22.33157000   18.60747000     -0.254168    0.70414600    0.75673400
Ge   19.30364000    4.58707000   11.78877000     -0.203247   -0.40597300    0.05604100
Ge   19.49202000    8.64025000   17.41831000      0.020806   -0.37658700    0.14189200
Ge   20.35160000   13.52037000    9.99013000      0.374001   -0.53805000   -0.05052100
Ge   18.36791000   11.66841000   18.50046000     -0.110602    0.84800900    0.28040800
Ge   14.51814000   18.72360000    9.36559000     -0.332135    0.09045500   -0.89732800
Ge   18.49560000   16.47522000   19.49068000      0.022920   -0.52631200   -0.20221300
Ge   19.81845000    1.89014000   11.53291000     -1.138086    1.02121400    0.11112700
Ge   19.15670000    4.17856000    2.73786000     -0.056272   -0.91933000    0.19746600
Ge   23.43074000    6.27826000    8.75536000      0.017971   -0.21790000   -0.05030700
Ge    1.69317000    3.79333000    3.77731000     -1.016010   -0.51110500    0.26231100
Ge    1.99396000    9.94385000    9.56776000      0.181484    0.01484700    0.05352100
Ge   23.68232000    9.26184000   19.66361000      0.631650    0.98648600   -0.78483700
Ge   21.85366000   15.93225000    9.23650000      1.642449   -0.73258000    0.59253700
Ge    1.31897000   14.91117000   19.37345000      0.465833   -0.24396500    0.09257200
Ge   20.11837000   23.50783000   10.32005000      0.324850   -0.84128800   -1.71712600
Ge    1.42382000   21.14353000   19.65178000     -0.966422   -0.27901500   -0.47753400
Ge    5.20603000    7.17111000    8.83072000     -0.346765   -0.16571900    0.74856300
Ge    3.18401000    6.75670000   19.44450000     -0.782039   -0.60995200    0.33465600
Ge    1.70436000   10.21668000    4.96227000      1.662425    1.78102200   -0.74099800
Ge    4.29826000   12.69563000   15.89756000      0.332770   -0.73380500    0.24648200
Ge    6.08967000   19.58186000    3.23801000     -0.478542   -0.77280000   -0.15201200
Ge    0.42010000   17.98860000   18.56702000      0.407504    0.63906800   -0.76463500
Ge    5.31507000   19.87472000    8.55368000      1.199272    0.56927400    0.19231700
Ge    3.52735000   23.02583000   17.60920000      0.511841    0.39325300   -0.08959300
Ge   10.55370000    2.51562000    6.49970000      0.476416   -0.13331600    0.34732600
Ge    7.39509000    8.96904000   18.95701000     -1.552396    1.39503600   -1.94422400
Ge    6.30856000   12.47474000    6.35826000      0.364170    0.58918800    0.85369100
Ge    8.63503000    9.79834000    1.89226000     -1.105339    0.22625400   -0.05243000
Ge    7.66498000   17.77796000    6.79326000      0.303456    0.93343900   -0.37345100
Ge    5.28748000   19.98373000   18.33518000     -0.091540    0.72829600    0.25216700
Ge   11.92446000   23.15355000    6.02663000      0.304778   -0.02455100    0.59960000
Ge   10.31723000    0.58537000   17.32334000      0.110507    0.00590000   -0.86125000
Ge   12.33597000    6.77979000    5.94924000     -0.691648   -0.52008700   -0.28909800
Ge   14.25444000    7.87288000   17.84843000     -0.629828   -0.03195400   -1.19304700
Ge   15.88328000   11.75980000    6.13419000     -1.466651    1.02887000    0.06208700
Ge   16.73216000   15.19961000   15.37669000      0.448183   -0.39861000   -0.01567700
Ge   12.69811000   16.02910000    4.74411000     -0.387714    0.49902600   -0.30023900
Ge   15.09476000   19.29761000   16.55330000      0.051273    1.24474700   -1.10047100
Ge   15.85301000    0.20433000   10.07970000     -0.184971   -0.45302400   -0.42323100
Ge   17.62323000    4.45248000   18.14483000      0.699695   -1.19888200    0.65802400
Ge   20.24096000    5.11061000    7.61913000     -2.599660    2.11758100    0.97495100
Ge   21.76538000    5.35717000   16.57439000     -0.672464    1.90730100    1.51208900
Ge   19.34934000    8.75687000    8.28302000      1.098977   -0.06051400   -2.22070500
Ge   22.29835000   13.84399000   17.77935000      0.091684   -0.88372500   -0.12856100
Ge   19.44894000   17.17748000    7.76848000      1.118408    0.03670900   -1.48072900
Ge   19.51843000   19.67373000   16.95585000      0.378945    0.46726200   -0.59340500
Ge   20.23548000   23.45581000    6.34390000     -0.255481    0.52658400    0.33325000
Ge   19.43571000   21.41566000    1.39468000      0.820059    0.52465800   -0.50424600
Ge    6.67176000    2.52771000    8.76194000      0.259213    1.76607700    1.39859100
Ge    3.85906000    2.38987000   17.71477000     -0.127947   -0.42386800   -0.42038000
Ge    3.40533000    7.21650000    5.84568000      0.606171   -0.16002500   -0.55793900
Ge    3.33864000    8.94280000   13.71619000      0.293668    0.38346600   -0.29614200
Ge    1.26466000   17.07754000    6.43431000      0.906041    2.19255400   -0.76939400
Ge    1.97945000   14.53626000   16.15334000     -0.492534    0.91679700   -0.49681000
Ge   23.57614000   20.44378000   10.26749000     -0.670650   -1.29212000   -0.48962700
Ge    4.45088000   21.10576000   14.96158000     -0.272969    0.02743900    0.35455100
Ge    7.70994000    2.54105000    3.19860000     -0.173501   -0.50479200   -0.27543100
Ge    8.31827000    2.45263000   15.66274000      0.008906   -0.90410000   -0.68394400
Ge    8.98089000   10.49684000    5.32528000     -0.157692   -0.71016400   -0.46787700
Ge    8.13515000   11.23551000   15.93880000      0.860300   -1.04039300   -1.08796600
Ge    9.50724000   14.28278000    6.88513000     -1.976189   -0.62370300    0.54263100
Ge   14.34704000   12.39301000   15.99460000     -0.087839    0.30643000   -0.11141000
Ge    8.19998000   21.47095000    4.46602000     -0.200550    0.05811800    0.38849200
Ge    8.74543000   19.90938000   15.83974000      0.297544    0.05968200   -0.66698000
Ge   14.55045000    2.11935000    6.54177000      0.487563   -0.16047300   -0.23659100
Ge   12.74621000    2.81540000   15.86562000     -0.040165   -0.06435200   -0.90858400
Ge   15.19660000    8.57728000    4.34744000      1.183683    1.43375000    0.60814400
Ge   15.54941000    9.02639000   13.91323000     -0.164814   -0.88376000   -0.17239100
Ge   16.21105000   13.66075000    3.86738000     -0.004398   -0.77920400   -0.79795800
Ge   13.63408000   16.11028000   15.79221000      0.285198   -0.09610600    1.15922400
Ge   13.50362000   19.41211000    0.91324000     -0.844347   -1.12537300   -0.64030700
Ge   10.02369000   21.52102000   19.71154000     -0.582275    0.59786800   -0.81288600
Ge   22.72756000    4.09200000    4.81198000      0.051670   -0.93344500   -0.43090200
Ge   21.01736000    2.54790000   15.03337000      0.649795   -1.30101800    0.51824400
Ge   22.29422000   10.15286000    6.77423000     -0.114835   -0.44098700   -0.60252700
Ge   19.49499000    9.62886000   13.63710000     -0.082490    0.62905200   -0.27765500
Ge   22.48981000   16.73664000    2.73640000     -0.283746   -0.15458900   -0.90026400
Ge   19.82600000   15.64992000   14.43829000     -0.463627   -0.75897600   -0.71865100
Ge   20.81514000   20.21268000    5.46124000     -1.396150   -1.12048800   -2.49878600
Ge   21.08559000   23.16046000   17.73010000     -0.900498    0.73186500    0.75472100
Ge    6.23081000    4.52351000    5.92255000      0.242413    0.02031700   -0.50458900
Ge    3.85073000    1.15123000   14.77592000      0.449740    0.85505300    0.62354100
Ge    4.61309000   11.45391000    3.08150000      0.289411    0.59719100    0.28933000
Ge    7.66651000    7.97874000   12.95868000      0.540018    1.34522900    0.46466200
Ge    5.85588000   16.57225000    0.40062000      0.123510    0.25416100   -0.79005300
Ge    2.49916000   13.71392000   11.41642000     -0.417174    0.27730600    0.91714700
Ge    4.99713000   22.44540000    5.84231000      0.002415    0.39250900    0.32380200
Ge    6.75209000   20.10143000   12.90251000     -0.466036    0.66289000   -0.08385200
Ge   15.71969000    4.50340000    3.56149000     -0.515598    0.18263100    0.49385600
Ge   12.83068000    0.03509000   12.50054000     -0.076902    0.09028500   -0.61639700
Ge   11.76710000    8.37919000   19.77531000     -0.600203    0.38984800    0.46332700
Ge   12.29832000    9.28092000   13.03765000      0.598248   -0.06137500    0.95716000
Ge   10.85904000   14.31356000    1.52184000     -0.956649   -0.54716500   -0.40677000
Ge    8.31734000   16.46306000   10.93718000     -0.621119   -0.46544500    0.08518600
Ge   13.28657000   23.69650000    2.31512000     -0.267855    0.25489300   -0.48425600
Ge   11.34827000   21.63253000   13.27097000     -1.016739    0.17163300    0.05698300
Ge   23.11487000    2.30167000   18.20026000     -0.036675    2.90792300   -0.59949500
Ge   11.71002000    5.09790000   11.74226000      1.677101    0.01906800    0.83583400
Ge   17.82311000    8.20184000   19.79379000      0.072191    0.18917200   -1.14358000
Ge   12.92614000    7.39302000    8.37947000      1.204973   -0.00058700    1.03261200
Ge   19.83930000   12.40540000    2.48361000     -0.533926    0.33963700    0.47036400
Ge   16.38171000   15.06360000    9.61580000     -1.484021    0.93427600   -1.48375200
Ge   17.21813000   21.39155000    3.18376000     -0.426950    0.12652500    0.82360800
Ge   18.38211000   21.97818000   12.66977000     -0.606503   -0.24640900    0.03871800
Ge   23.69378000    1.20661000    2.85716000     -1.336346    0.76535800   -0.92266400
Ge   23.13029000    2.43957000   10.25482000     -1.370848   -0.20663900    0.60014400
Ge   23.02308000    8.71639000    2.87908000     -0.401666    0.56318700    0.10497400
Ge   22.66965000    8.93897000   11.28572000     -0.660119    0.10712600    0.72787500
Ge    0.78432000   13.92247000    4.90958000     -1.228967    0.19107100   -0.29547400
Ge   23.57141000   15.36644000   11.58038000     -0.084465    0.13386600    0.62719400
Ge    0.40047000   21.45657000    3.92251000     -1.435006    0.35866500   -0.09534800
Ge   21.21383000   18.19677000   12.52754000      0.277235   -0.17202600    0.50409100
Se    2.21278000    0.25804000   19.72855000     -0.699666    0.07520100    0.37111600
Se    1.73459000    2.11813000   10.03194000      0.775631   -0.38644700   -0.17284600
Se    0.79146000    7.50881000    1.19581000      0.178002   -0.52569700    0.53450600
Se    1.45652000    7.45227000   10.59140000     -0.460771    0.11803000    0.26519500
Se    0.53472000   11.76160000    0.89290000     -0.392576   -0.55687100   -0.12975200
Se    2.39838000   13.63655000    8.99505000      0.610590    1.08579000   -0.15265600
Se    2.52161000   20.75234000    3.30146000      1.037333   -0.76849000    0.03271000
Se    0.11755000   18.68068000   12.21791000     -0.212035    0.36513800   -0.11080900
Se    5.01128000    1.80588000    2.77769000      0.933423    1.34352200    0.24212500
Se    4.88292000    2.29046000   12.76798000      1.027783    0.04114500   -0.18900300
Se    8.57147000    4.89558000    3.82358000      0.515703    0.25261700    0.46813500
Se    8.76343000    9.15781000   11.03566000     -1.024530   -0.23009000   -0.00791200
Se    7.75108000   11.41318000    0.19973000     -0.119773   -0.49943100   -0.39382700
Se    6.56122000   14.92751000   12.08354000     -0.054665    0.68011800   -0.69432300
Se    7.44057000   21.06411000    1.86905000      0.968869    0.18460600    0.19904500
Se    9.11606000   20.73790000   12.11341000      0.388704    0.11448400   -0.55159600
Se   13.88377000    0.50828000   19.65294000     -0.184848   -1.11070700   -0.39247600
Se   14.03002000    2.34330000   11.77362000     -0.243286   -0.49584400    0.03069800
Se   11.55500000    7.62115000   17.34537000      0.753060   -0.00925800    0.39841700
Se    9.87971000   10.41153000    8.26359000     -0.153823   -0.73165000    0.34094100
Se   13.13545000   13.64296000    0.95285000      0.828877   -0.27521900   -0.64735900
Se   13.89096000    9.13942000   10.26777000     -0.268893    0.03974100   -0.50259000
Se   15.72546000   16.09503000    2.04451000     -0.288904    0.62716100   -1.23142900
Se   12.22325000   19.11555000   10.77080000     -0.350660    0.60335300   -0.45690300
Se   17.87879000    3.59437000    5.04899000     -0.067128    1.64888200   -0.09983000
Se   13.70034000    3.87019000   13.52057000     -0.246315    0.59190000    0.30812000
Se   16.34246000    5.71286000   16.63001000     -0.672042    0.50380300   -1.23888900
Se   18.86623000    3.71011000   14.29749000     -0.842245    1.25486200   -0.89623500
Se   19.53638000    9.64436000    0.84783000      0.098231    0.91759100    0.44179900
Se   17.18077000   17.09995000    8.34561000     -0.862690    0.02832000    0.47827400
Se   20.12889000   18.09718000    0.47801000      1.545112   -0.57909900   -0.94060500
Se   19.81861000   20.03330000   11.42479000      0.374487   -0.17645700    0.06409700
Se    2.11558000    1.22106000    3.62720000      2.189737    0.24101600    0.33300400
Se    3.42896000    6.09448000   13.63782000     -0.345406    0.13896900   -0.15012700
Se    4.79629000   12.15272000    0.54787000      0.628542   -0.47923100   -0.43079400
Se    3.89106000   11.78889000   10.64550000      0.289790    0.03884100   -0.24626000
Se    4.37248000   14.85486000    0.69044000     -0.266653    0.01601400    0.45168400
Se    2.58702000   16.31503000   11.28188000      0.674251   -0.02682600    0.42486800
Se    5.55110000   22.53527000   18.99919000     -0.409521   -0.53622900   -0.13587400
Se    5.12494000   21.83027000   11.43165000     -0.154854   -0.76405600    0.22936100
Se   12.76063000    5.86286000    1.34560000      0.249555    0.23940800   -0.56128200
Se    8.87683000    2.99746000   10.34440000     -0.635921    0.27744800    0.26863600
Se   10.49571000   10.95318000   19.61429000      0.096958   -0.05193400    0.72826600
Se   11.57036000   12.16179000   12.20229000     -0.274876   -0.81389300    0.89279700
Se   11.66569000   16.58445000    1.85476000     -0.186399    0.52845900    1.15597500
Se   11.11817000   15.58889000   13.80639000      0.583746   -0.08761900   -0.07519800
Se   12.17680000   22.80600000   18.04173000      1.118605    0.87071800    0.07965800
Se    9.56944000   23.34947000   11.57929000      0.061077   -0.52338200    0.63187500
Se   12.12593000    3.59468000   18.02581000      0.226808    0.07141500    0.21036000
Se   17.79985000    7.85302000    9.82366000     -1.374493   -1.08463200    0.24800400
Se   15.66537000    7.39303000    1.09746000      0.003410    0.21759400    0.15214900
Se   17.98090000   13.79110000   10.73802000      0.063985   -0.71834500    1.16637200
Se   18.80427000   14.86041000    2.67026000      0.396621    0.11784100   -0.20499400
Se   14.15834000   14.06702000    8.26608000      0.437970    1.13616300    0.37156500
Se   17.38173000   22.99306000    1.38248000      0.096395   -0.44038800   -1.01580600
Se   16.67563000   21.61374000   10.79402000      0.444951    0.55234800   -0.39353000
Se   23.18499000    3.15342000    1.53714000      0.631601   -0.26362200    0.68332500
Se   22.87863000    4.80516000   10.72311000     -0.043800   -0.42530500    0.15127600
Se   21.17451000    5.56484000    2.52977000      0.423611    0.35708100    0.78209200
Se   21.56830000   11.62213000   11.78141000     -0.981853   -0.93625900   -0.16409300
Se   22.53901000   14.24046000    1.65429000      0.531052    0.29964300    0.57149400
Se   21.03500000   15.28624000   12.01234000     -0.510436    0.63813600    0.38612600
Se   22.93537000   22.80876000    2.14229000      0.312912   -1.30164300   -0.28812100
Se   21.89684000   22.27903000   15.71513000      0.354747    0.44845500   -0.43518800
Se    4.33018000    4.57985000    9.75889000      0.125637    0.59746000   -0.66674400
Se    4.29493000    4.71268000   17.82852000      0.672516    1.25150000   -0.07433800
Se    4.78342000   10.50247000    8.32168000     -0.861067    0.09822700   -0.01532600
Se    3.99863000    7.61070000   16.27039000      0.499272    0.31590500   -0.22691500
Se    5.57218000   19.96263000    6.10512000      0.005217   -0.29643300   -0.55182000
Se   22.74365000   16.05791000   18.91965000     -0.546560    0.19605800    0.57442500
Se    0.54466000   22.61922000   10.87062000      1.035738    1.03336600    0.62801000
Se    2.71192000   20.65483000   17.46349000     -0.108697    0.03802800    0.32682200
Se    8.07310000    3.52489000    7.15771000      0.433907    0.59725400   -0.63710900
Se    5.48791000    5.40793000    0.35766000     -0.068378   -0.61270100    0.33713700
Se    7.17151000   10.36300000    7.50114000      0.299410   -0.01525600   -0.16124400
Se    3.58557000   10.39752000   19.30952000      0.254880   -0.15139200   -0.28756800
Se    6.31495000   17.57662000    8.90421000     -0.306647   -0.20757600    0.61416000
Se    6.54674000   17.20037000   17.80102000      0.331227   -0.78770000    0.26265400
Se    9.23158000   19.50000000    8.17692000     -0.812093    0.21292000   -0.45519100
Se    8.63414000    2.11741000    0.91902000      0.273351   -0.11171500    0.12158200
Se   13.26044000    1.61855000    8.62930000      0.630732    0.40513700   -0.08245000
Se    8.67779000    4.30408000   18.58420000     -0.437105    0.21311600   -0.45787500
Se   10.87367000    6.65045000    9.40345000      0.087891    0.24575600    0.11168200
Se   16.23106000   13.51097000   17.50006000     -0.302679   -0.04380900   -0.51010600
Se   12.83742000   17.14291000    7.87623000      3.641589   -0.13754000   -1.40828600
Se   15.57987000   17.13321000   17.19547000      0.442995   -2.67618800    0.73355900
Se   14.95610000   23.20849000    7.12562000     -0.109164   -0.01569300    0.29529800
Se   17.44807000    1.83544000   16.94859000      0.969870   -0.43497800    0.83220600
Se   16.98262000    3.60581000   11.07072000      0.585522    0.25724000    0.25770600
Se   20.66670000    3.73036000   17.86814000      0.375956   -1.01990300    0.27543900
Se   18.27247000   10.05575000   10.67476000     -0.203285    0.54646200    1.67516500
Se   20.04007000   10.51792000   16.04972000     -0.190711   -0.33918700   -0.15893600
Se   15.22392000   17.00630000   10.95243000      0.162494   -0.46405700    0.82147300
Se   19.98913000   13.97117000   18.69384000     -0.527123   -0.02110600   -0.00358200
Se   19.45815000   21.53280000    8.64434000     -0.200293    0.79243000   -0.51473200
Se   18.81770000   19.10543000    2.01130000     -1.405567    0.24853300    1.40414900
Se    6.09732000    0.39592000    8.56359000     -0.484189   -1.80869700    0.51727700
Se    2.57759000    2.59289000    0.01892000      0.690611    0.02396100   -0.42751400
Se    7.61559000    6.86788000    9.92756000      0.246295   -0.08161300    0.34890300
Se    4.51366000    8.51910000    0.58192000      0.776837    0.24874600   -0.30514200
Se    3.36930000   17.10851000    5.37861000      0.224540   -0.36482200   -0.22722800
Se    6.62145000   12.69531000   17.02620000     -0.922308    0.18467000    0.27739800
Se    2.83106000   19.96571000    8.72725000      0.054254    0.35557200    2.20389400
Se    0.70853000   19.05354000    0.89665000     -0.065009   -0.28941500   -0.57558900
Se    9.83208000    0.18655000    7.61755000      0.518940    0.25531800   -0.13310700
Se   11.62371000    3.84021000    1.70966000      0.027992   -0.07283600    0.71514600
Se   11.58538000    3.28332000    9.25320000     -0.176604    0.16372000   -0.66483700
Se    8.85807000    7.83900000    0.35145000      1.108845   -1.52565500    1.69615100
Se   11.33104000   13.26168000    8.02834000      0.566511    0.50083900    0.10385400
Se    9.45552000   15.05251000   19.09620000      0.643545    0.39253400    2.46939800
Se   13.40560000   22.44787000   10.26046000     -0.499250    0.45564800    0.52419600
Se   12.30215000   14.28185000   16.89494000      0.527859    0.22521700   -0.19343400
Se   18.19741000    1.22014000    8.46890000      0.117532    0.65539700   -0.11219900
Se   17.38148000    5.31885000    1.51449000     -0.131862   -0.21311200   -0.92828500
Se   16.21989000    6.97798000    7.99987000      0.513670    0.13309300   -0.17920700
Se   15.61395000    9.38727000   16.36905000     -0.010582    0.63625500   -0.21904500
Se   14.69566000   11.86773000    8.28214000      0.414391   -0.92669200    0.08025700
Se   16.92646000   12.77522000    0.49470000      0.097802   -0.32535800   -0.03298300
Se   14.95548000   18.60129000    5.03776000      1.621965    0.80122100    0.52593900
Se   19.27454000   21.41204000   18.47495000     -0.028803    0.08126300   -0.07614900
Se   22.09510000    0.58587000    8.93597000     -0.415249    0.12957400   -0.22566800
Se   23.08327000    1.01513000   16.21150000      0.009052    0.00930200   -1.52365800
Se   21.03267000    7.27679000    9.29862000      0.825250   -0.42325600    0.85433200
Se   23.15983000    6.56165000   18.10148000      0.081235   -0.06477300    0.08717500
Se    0.28478000   11.48084000    7.98466000     -0.453969   -0.46545600    0.73313900
Se   21.32739000    8.40544000   19.55111000     -0.693903   -0.40270400   -0.49291100
Se   21.73428000   18.10345000    8.42654000     -0.723795    1.08574800    0.01616200
Se   19.29410000   17.41844000   17.13221000     -0.106703   -1.58260900    0.24251600
Se    1.95527000   23.60794000    9.11585000     -0.176735    0.09898800    0.53595700
Se    2.49568000   23.33412000   13.84947000     -0.382127   -0.38651500   -0.12811200
Se    2.32449000    7.57096000    8.28237000      0.227391    0.37656100   -0.06634200
Se    1.93653000    7.82928000   17.44943000     -0.514033    0.46153100    0.12086900
Se    0.78152000   15.61398000    8.03723000     -0.318512   -1.81914500    2.00601000
Se    2.53718000   12.48256000   17.69844000      0.184131    0.32462800   -0.41925000
Se    1.93612000   19.59017000    6.76029000     -1.080236   -0.07951000   -1.63853700
Se   22.75273000   19.09323000   16.53684000      0.770584   -0.31880400    0.53488300
Se    7.07434000   23.64069000    5.29884000     -0.004357   -0.59891900   -0.53871000
Se    6.68354000    1.70940000   17.77110000     -0.121063    0.23823800    0.37797200
Se    9.62538000    6.87122000    5.67536000      1.145205   -0.10649200   -0.00902700
Se    6.52019000    8.09135000   16.61312000     -0.129760    0.07024000    0.29762800
Se    7.45053000   14.10688000    8.26082000      0.084156   -0.22259500   -0.71231000
Se    8.45616000   18.16597000   12.87149000      0.348466   -0.23874900   -0.07111900
Se    7.75137000   17.66785000    3.77099000     -0.539973    0.26151400   -0.34979600
Se    8.62513000   16.80531000   16.44559000     -0.765353    0.52062800    0.13970400
Se   14.49746000   21.79650000    4.81116000     -0.476977    0.31764600    0.30918200
Se   14.32089000   23.14119000   15.47734000     -0.707144   -0.10469000    1.54476200
Se   12.93641000    8.33132000    4.20040000     -1.066270    0.26890600    0.08742100
Se   10.03879000    7.83945000   14.17196000     -0.119820    0.41778600   -0.19332700
Se   14.17704000   11.64226000    4.31366000      0.807628    0.60965500    0.37615700
Se   14.62734000   14.93130000   14.00997000      0.383737   -0.45120100   -0.21960900
Se   12.79289000   18.53947000    4.46316000     -1.971409    0.18104000   -0.45154300
Se   14.98875000   19.97790000   18.94613000      0.677225    0.65780400    0.21406900
Se   18.52062000    1.42119000    4.63639000      0.047795   -0.72487900   -0.78147500
Se   19.36511000    1.21319000   18.63214000     -0.603102   -0.42334600   -1.03836400
Se   19.63004000    6.95374000    6.20752000     -0.155760    0.08910800   -0.09921100
Se   19.60553000    6.53342000   16.05012000      0.303009    0.46039900    0.17507200
Se   20.07750000   12.41033000    5.05614000      0.153838   -0.34420800   -0.01447600
Se   18.14567000   13.67634000   13.54493000      0.258150    0.73125700    0.52580600
Se   18.97987000   18.44690000    5.49781000      0.852057    0.56030800    0.61563700
Se   20.66550000   20.29518000   14.92345000     -0.531593    0.03102900   -0.40100700
Se    6.10954000    6.92687000    6.14681000     -0.642636   -0.04168100    0.23757800
Se    1.81090000    3.39069000   16.16552000     -0.123324    0.04910300    0.76152800
Se    3.93609000    9.18804000    4.13292000     -0.643443   -0.33403100    0.67438600
Se    3.74112000   11.58116000   13.80838000      0.087068   -0.50122600    0.21279600
Se    2.96016000   14.72980000    5.04049000      1.847063   -0.11934400    0.01685900
Se    2.53672000   16.76656000   18.03519000     -0.466409   -0.02568100    0.15625300
Se    0.74665000   22.28646000    6.05498000     -0.263257    0.38986400    0.38476800
Se    2.75930000   20.06010000   12.79584000     -0.171146    0.42757200   -0.04821900
Se   12.69464000    1.61720000    4.93124000     -0.666507   -0.00562200    0.25786400
Se    8.74084000    4.72518000   16.16643000     -0.030792    0.99314600    0.78720700
Se   11.24282000   11.36250000    6.57918000      0.782641   -0.60889300    0.14222200
Se   10.40985000   12.02892000   17.58957000      0.296974    0.07609100   -1.61587600
Se   10.40435000   15.16399000   10.67948000      0.033657    0.84446400   -0.60531800
Se   11.56207000   19.67539000   19.06024000      0.488137   -0.51626400    0.24210600
Se   10.71794000   21.97785000    4.33558000     -0.290728    0.05198400   -0.71986700
Se    7.94100000   20.21850000   18.06985000      0.823073    0.20151700    1.22927300
Se   14.05227000    4.86004000    5.65307000     -0.449948    0.06842100   -0.14848700
Se   15.14414000    5.60768000   18.67239000     -0.041814   -0.33074000    0.07943900
Se   17.10507000    9.95295000    5.59453000      0.470182   -1.99407400   -0.31237100
Se   17.65431000    7.93633000   13.38374000     -0.154974    0.34092400    0.01155900
Se   17.46277000   13.58340000    5.98117000     -0.120292   -0.16210800    0.36541800
Se   13.07694000   18.36366000   15.58789000     -1.546797    0.91385800   -0.72658700
Se   16.29048000    0.31635000    4.48550000      0.184119   -0.20840500    0.13982000
Se   16.77733000    2.72736000   13.27791000     -0.520389    0.05780400    0.80820900
Se   21.81200000    3.69117000    7.26786000      2.290266   -1.74830800   -0.62141700
Se   22.29957000    4.53079000   14.58279000      1.125765    0.00562400   -2.11901100
Se   18.84464000   11.27112000    8.76383000      0.174741    0.41831400   -0.54972200
Se   22.41278000   13.91726000   15.17411000     -0.725628   -0.10729600    0.58927400
Se   20.68414000   14.62665000    7.57712000     -0.987059    0.24830700    0.01100600
Se   22.42183000   16.96589000   15.59605000      0.969393   -0.02458500   -0.39491800
Se   21.64119000   21.40680000    7.19959000      1.001582    1.03944800    2.01231900
Se   22.91734000    0.28868000   19.18137000     -0.670888   -2.55237500    1.73985800
Se    4.28813000    3.13413000    6.27390000     -0.778832    0.17596100    0.30618800
Se    6.17031000    0.57566000   15.77929000     -0.310358   -0.76634100   -0.48562300
Se    2.93576000    5.90563000    3.40767000      0.630532   -0.06136200    0.16248400
Se    5.01397000    8.28630000   11.45389000     -0.476325   -0.06838300    0.70432900
Se    2.12885000   10.74117000    2.31408000     -0.591603   -0.34580200    0.82264100
Se    4.18408000   14.90194000   15.12257000     -0.007194    0.31165100   -0.12526600
Se    4.82399000   18.70503000    0.65138000     -0.248097    0.46491200    0.44699200
Se    4.26081000   18.55476000   13.63775000      0.479624   -0.86164200   -0.55670300
Se    9.73599000    0.99354000    2.93064000     -0.672267    0.14599300   -0.41281100
Se   10.98375000    1.55576000   14.75358000     -0.043828    0.10701000    0.75255900
Se   10.41681000   11.02495000    2.56167000      0.870568   -0.18732900    0.85297000
Se    9.09459000    9.09344000   16.83369000     -1.053401    0.06411800    0.52427700
Se    8.52153000   12.91691000    5.03949000      0.018263    0.90871800   -0.47336600
Se   11.44919000   11.24269000   14.60079000      0.295830    0.06040500   -1.72361100
Se    9.72733000   19.67402000    1.25608000     -0.405403    0.16720700    1.01273600
Se   10.44669000   21.95681000   15.77292000     -0.061319   -0.17063600    0.09562500
Se   18.12507000    3.74209000    8.47596000      0.196354   -0.45953600   -0.03370300
Se   14.85868000    1.53523000   16.41302000     -0.041730    0.17162600    0.21214800
Se   16.74768000    6.93383000    3.97332000      0.289866   -0.77005600    0.41003700
Se   13.91982000    7.21792000   13.59410000     -0.278331    0.84754900    0.14866300
Se   17.32009000   11.43579000    2.50408000      0.364380    0.67544900   -0.03246500
Se   17.75819000   18.82268000   14.72526000     -0.795340    0.93692200    0.96606400
Se   15.32499000   16.37362000    4.32125000      0.309185   -0.72927400    0.76076700
Se   16.53588000   20.90393000   14.07436000      0.648900   -0.67251700   -0.20449600
Se   22.56597000    1.34139000    4.88007000     -0.867785    1.38470700    1.31708100
Se   21.81479000    1.51685000   12.64483000      1.814196   -0.10733400    0.30534500
Se    0.30467000    8.41970000    5.23877000     -1.086338   -1.59394300    0.50841500
Se   20.91605000    7.83110000   12.92654000      0.811778   -0.16978300   -0.24937400
Se   23.14939000   16.26067000    5.14337000     -0.343589   -0.99374000   -0.09100000
Se    0.62911000   12.56328000   14.84336000      0.140602    0.08417300   -0.23148300
Se   22.83241000   19.30977000    4.39191000     -0.289241    0.48283300   -0.28410300
Se   21.44077000   21.82246000   11.72176000      0.353624   -0.74672900    0.21387100
Se    2.98636000    4.79716000    7.75353000      0.688959   -0.51788100   -0.18671500
Se    2.34600000    4.00356000   14.03190000      0.068082   -0.10656400   -0.72536900
Se   22.37703000   11.63669000    4.76719000     -0.258066   -0.15643300   -0.19220300
Se    1.04841000    9.34549000   13.07789000     -0.414249   -0.20311100   -0.16984000
Se    1.17156000   14.92388000    2.14203000     -0.629812   -0.25061400   -0.40778100
Se    0.94896000   16.22248000   14.17770000     -0.809012    0.32172700   -0.11979700
Se    3.11902000   21.91850000    1.31078000      1.223849   -0.05081800    0.74409100
Se    5.02159000   18.68093000   16.01051000     -0.160996    0.13011900   -0.22781800
Se   11.08081000    4.48268000    4.05931000     -0.687625   -0.30860000   -0.65256500
Se    7.32992000    2.90655000   13.10231000     -0.503567   -0.10165000    0.04752100
Se    6.80649000    9.66006000    3.39405000      0.341937    0.01013300    0.35437300
Se    7.61912000   10.70962000   13.51373000      0.194004   -0.60507100    0.40909200
Se    7.99877000   16.84422000    1.41933000      0.334973   -0.76018700    0.98049000
Se    8.92820000   15.42030000   14.22985000     -0.272453    0.02606500   -0.01751200
Se    7.61089000   21.51574000    8.27494000      0.091984   -0.73962500    0.45843600
Se    7.01268000   21.62039000   15.02412000     -0.353823   -0.14154600   -0.87421700
Se   15.47429000    1.35215000    2.49155000     -0.064999    0.22561700   -0.21112000
Se   10.81594000    5.66452000   14.22694000      0.293819   -0.53838500   -0.34760700
Se   14.03829000    9.48103000   19.57936000      0.502286    0.38600200    0.79134000
Se   14.63130000   10.74550000   12.35380000     -0.442683   -0.64976100    0.28205000
Se    9.96051000   16.58844000    6.60910000      0.111823    0.05122300   -0.55621800
Se   12.85259000   17.43657000   12.12281000      0.519420   -0.94870900    0.53953700
Se   14.11175000   21.26003000    2.18909000      0.690984    0.77751900    0.97853100
Se   15.02126000   23.01049000   13.32455000      0.966063    0.07354500   -0.94257800
Se   19.11693000    6.09293000   19.63134000     -0.107396    0.13329500    0.33300400
Se   14.77022000    5.58920000    9.07053000     -0.970677    0.21289500    0.00849700
Se   20.72279000    7.66293000    3.60565000      0.173406   -0.17703100   -0.40170700
Se   23.55217000   12.58349000   12.18701000      1.401874    0.61529600    0.38387800
Se   20.40635000   15.99389000    4.11089000     -0.669417   -0.55905000   -0.39684700
Se   18.32886000   17.32717000   13.09151000      0.548504   -0.57918500   -0.75031600
Se   19.83038000   22.29720000    3.88528000      0.029926   -0.87541200    0.88682200
Se   18.50956000    0.81222000   13.40058000     -0.389602   -0.61851200   -0.33325900
