384
23.69824000 23.69824000 19.89960000
Ge    5.64624000    6.19146000   12.67714000      0.521955    0.18611300   -0.59066400
Ge    5.45387000    5.10392000    3.42310000      0.750193   -0.53964300   -1.04177600
Ge    2.38850000   12.03207000    7.02367000     -0.511149   -0.09906700    0.07453100
Ge    9.11261000   14.27422000   16.80267000     -0.477507    0.14609900    1.00298900
Ge    4.78178000   15.67325000   10.43482000      0.700622   -0.32425800   -0.05406300
Ge    9.59996000   17.92830000   19.02515000     -0.347287    0.27085100    0.60763500
Ge    6.36862000    0.09322000   11.73966000     -0.156092   -0.16695900   -0.88367900
Ge    5.45719000    2.80110000    0.49373000      0.078980   -0.41579700   -0.00274300
Ge    9.07674000    5.44515000   10.76862000      1.878261   -0.76128600    1.11865100
Ge   10.97336000    5.60669000   19.35165000     -0.254484    0.06839200   -0.41133400
Ge   11.29330000    9.71302000   10.32682000      0.666295   -0.35919900    2.40674100
Ge   13.20523000   12.64198000   18.72176000      0.177775   -1.09342500   -0.15685700
Ge   10.62753000   17.35566000    9.18526000      0.742177    0.08767900   -0.28506700
Ge   13.81239000   16.67072000    0.42595000     -0.718778   -0.06976100   -0.20756000
Ge   11.07041000    0.59798000    9.58041000      0.215773   -0.59873800   -0.03595800
Ge   15.59715000   22.63038000   18.67001000      1.939546   -0.35131900   -0.53079600
Ge   19.16287000    4.51420000   11.77284000      0.413254    1.53577000   -1.29641000
Ge   19.32885000    8.71816000   17.45271000      0.509728    0.65103700   -0.17623100
Ge   20.31535000   13.33976000   10.01753000      0.070692   -0.32121200   -0.24182500
Ge   18.42476000   11.74946000   18.48672000     -0.634357   -0.50193900   -0.19796200
Ge   14.62051000   18.69108000    9.24603000      0.167842   -0.14274600    0.20124300
Ge   18.81912000   16.35735000   19.42898000     -0.421898    0.05135700    0.38830100
Ge   19.55574000    2.05943000   11.65654000      1.206142   -1.92456500    0.63762800
Ge   19.24565000    3.82131000    2.79759000      0.124219    0.08636700    0.02891400
Ge   23.52799000    6.36010000    8.87225000      0.158948   -0.93960900    0.40705200
Ge    1.64767000    3.50876000    4.14143000      0.073903    0.28058900   -0.05536800
Ge    2.08165000   10.11388000    9.43379000     -0.372014   -0.10202100   -0.03952600
Ge   23.66845000    9.56496000   19.27567000      0.094809   -1.01301800    0.25669500
Ge   22.19189000   15.97005000    9.27481000     -0.013464    0.07254700   -0.70493300
Ge    1.39184000   14.74306000   19.11853000     -0.391124   -0.39754900    1.01333800
Ge   19.77913000   23.59419000   10.03418000      0.496726    0.26442000    0.01974600
Ge    1.26693000   21.09072000   19.62121000      0.065337    0.41119400   -0.09919000
Ge    5.23620000    7.07503000    9.08382000     -0.916252    1.22714300   -0.97483500
Ge    3.03054000    6.91320000   19.46787000     -0.111558   -0.35305700    0.39184100
Ge    1.87040000   10.11487000    4.86332000     -1.403684   -0.05156100    1.61226500
Ge    4.16319000   12.41747000   15.93168000      0.731313    1.03253000   -0.23049800
Ge    6.02456000   19.05502000    3.06637000      0.714887    0.89444900    1.26080800
Ge    0.38956000   18.09859000   18.40293000      0.073845   -0.63924900    1.76755100
Ge    5.53571000   19.75273000    8.62289000     -0.047235    0.45575100    0.26038200
Ge    3.48054000   23.04486000   17.71727000      0.073436   -0.22556000   -0.20115200
Ge   10.35310000    2.55067000    6.55516000      0.464522    0.07598600    0.26555300
Ge    7.07882000    9.02711000   18.64381000      0.634163    0.14546700    1.12910000
Ge    6.28138000   12.43023000    6.47880000      0.543924    0.31831900    0.15396000
Ge    8.65238000    9.92410000    1.83517000      1.289775   -0.46657900    0.07304000
Ge    7.98816000   17.92621000    6.71216000     -0.624427    0.99391300    0.30019000
Ge    5.17882000   19.89331000   18.45256000     -0.546913    0.15344900   -0.08694900
Ge   11.83456000   23.30168000    6.15658000      0.184092   -0.80179100   -0.37213400
Ge   10.40932000    0.77699000   17.14680000     -0.349982    0.14241300    0.29147800
Ge   12.20849000    6.58944000    5.90578000      0.491377    0.80451100    0.27072000
Ge   14.15029000    7.94223000   17.89049000      0.379916    0.64770300    0.47246300
Ge   15.96423000   11.72520000    6.30124000     -0.138203   -0.85950200    0.68076200
Ge   16.82125000   15.05441000   15.14948000     -0.181335    0.37843600    1.19940800
Ge   12.55013000   16.22720000    4.76934000     -0.189080    0.16930900   -0.37736400
Ge   15.07458000   19.19728000   16.37457000      0.047189   -0.93016500    0.66380100
Ge   15.70788000    0.12840000   10.08320000     -0.054725    0.62192300   -0.57223300
Ge   17.40259000    4.44978000   18.06972000     -0.585820    0.52308000   -0.20116800
Ge   20.03194000    5.15901000    7.68026000      0.881186   -0.32866500    0.49742100
Ge   21.44383000    5.82035000   16.69216000      0.549257   -1.20018300   -0.98968900
Ge   19.46890000    8.93574000    8.15111000      0.163905   -0.86794500   -0.04288600
Ge   22.27107000   13.45417000   17.92898000     -0.636353    0.42091400   -0.08545300
Ge   19.58947000   17.19515000    7.55381000     -0.207477   -0.03788100    1.18299000
Ge   20.00329000   19.44176000   16.95004000      0.047805   -0.49945000    0.08990900
Ge   20.07740000    0.09584000    6.16154000     -0.167594    0.32892800    0.41390200
Ge   19.82605000   21.56191000    1.48932000     -0.627927   -0.62679600   -0.46676600
Ge    6.80389000    2.86534000    9.16291000     -1.650863   -0.59034800   -1.54687100
Ge    3.97330000    2.26841000   17.69589000      0.296718    0.69866400    0.41054200
Ge    3.44774000    7.05278000    5.71078000      0.698169    0.05510200    0.33724000
Ge    3.50371000    9.00626000   13.76393000     -0.636989   -0.02147100   -1.03838200
Ge    1.29335000   17.56243000    6.20571000      0.211345   -1.57872400    0.24508300
Ge    1.98142000   14.78819000   16.07817000     -0.142174   -0.08707600   -0.26230500
Ge   23.56395000   20.05858000    9.97813000      0.067362    0.63924600    0.03629200
Ge    3.83806000   21.25823000   14.47017000     -0.354013   -0.18626000    0.00394100
Ge    7.79682000    2.53167000    3.10450000      1.587362    0.61172900   -0.33577700
Ge    8.25720000    2.33384000   15.34360000      0.005459    0.05938800    0.51900400
Ge    8.75862000   10.55338000    5.16085000      0.524481    0.36863400   -0.06737000
Ge    7.91532000   10.88628000   15.85891000     -0.650692    0.99167700    1.00122100
Ge    9.35923000   14.20093000    7.15896000      1.258283   -0.31951700   -1.06074600
Ge   14.32793000   12.35421000   15.91225000      0.655466   -0.28674400   -0.16323500
Ge    8.01451000   21.39850000    4.61737000     -0.014262    0.16695900    0.08699000
Ge    8.95350000   20.16999000   15.61918000     -0.947046   -0.64931000    0.19628800
Ge   14.76105000    1.90460000    6.49523000      0.140950    0.60228500   -0.47818500
Ge   12.83315000    2.62415000   15.92589000     -0.375966    0.38632700    0.14134200
Ge   15.27207000    9.05140000    4.24729000     -1.298628   -0.73356300   -1.36336200
Ge   15.37907000    8.84020000   13.97963000      0.368321   -0.12079700    0.70595200
Ge   15.88602000   13.72190000    4.02749000      0.640490   -0.46306900   -0.65973900
Ge   13.24292000   16.21710000   15.53853000      1.245967    0.70319900   -0.47609200
Ge   13.53323000   19.25979000    0.78363000      0.700501    0.03246700    0.58182200
Ge    9.57140000   21.35729000   19.63265000      0.704002    0.56565400    0.34536700
Ge   22.66742000    4.02932000    4.52800000     -0.094519    1.04781900    0.01032900
Ge   21.28924000    2.36269000   15.34527000     -0.344909    0.59974600   -0.82615800
Ge   22.19853000   10.15592000    6.86022000      0.280136   -0.45516700   -0.16912400
Ge   19.64656000    9.72876000   13.59537000      0.331959    0.07161900   -0.54044400
Ge   22.30577000   16.87208000    2.48002000     -0.315502   -0.58489200    0.26060900
Ge   19.87615000   15.58584000   14.30865000     -0.275194   -0.88782700   -0.27131300
Ge   20.68449000   20.30639000    5.38013000      0.827123   -0.29639500    1.09088200
Ge   21.03042000   23.00817000   18.11766000      0.189380    0.67978700   -1.43288000
Ge    6.29171000    4.33461000    5.68490000     -0.481161    0.59551100    0.20421700
Ge    3.65478000    1.27420000   14.95767000      1.261133   -1.68179900   -1.12068800
Ge    4.79893000   11.33307000    3.13043000      0.043496    0.43775500   -0.03367100
Ge    7.83349000    8.17005000   13.20400000     -0.787442   -0.16275800   -0.35144900
Ge    5.57074000   16.56443000    0.10434000      0.456651   -0.18928600    0.87816100
Ge    2.30181000   13.66816000   11.62025000      0.955244   -0.00781600   -0.30478800
Ge    4.71088000   22.49339000    5.92805000      0.511243    0.21320900    0.17502100
Ge    6.81102000   20.32568000   12.69297000     -0.113471    0.08862400   -0.47861700
Ge   15.71620000    4.58859000    3.60883000      0.078855   -0.30647300   -0.72287300
Ge   13.04989000   23.59997000   12.58002000      0.173935   -0.47654000   -0.27058700
Ge   11.48414000    8.77449000   19.87697000      0.109932    0.14383200    0.27655000
Ge   12.59635000    9.55982000   12.89120000      0.232835   -0.24489600   -0.81661500
Ge   10.86679000   14.00502000    1.69255000      0.157923    0.58387000   -0.59311200
Ge    8.10239000   16.55356000   11.15034000      0.812066    0.39947600   -0.88138800
Ge   13.26333000   23.69633000    2.19843000      0.416517   -0.05554300    0.22908100
Ge   11.28579000   21.74666000   13.49157000      0.032239   -0.20887100   -1.47059300
Ge   23.11069000    2.57028000   18.06081000      0.301039   -0.81078300    0.24879900
Ge   11.95990000    5.22934000   11.98942000      0.168490   -0.02572000   -0.06177800
Ge   18.03740000    8.28773000   19.72974000     -0.560778    0.62068300   -0.14213300
Ge   13.18173000    7.42179000    8.62529000     -1.829204   -1.24684300   -1.57839700
Ge   19.75842000   12.45654000    2.65119000      1.426766   -0.80801400    0.42646300
Ge   16.26277000   15.19209000    9.03211000      2.113902    1.57065200    1.48001700
Ge   17.19515000   21.41315000    3.27728000     -0.306569    0.10102900   -0.36641700
Ge   18.55190000   21.83934000   12.90244000      0.407754    0.59034600   -0.84192600
Ge   23.36015000    1.19683000    2.92816000      1.211514   -0.36749300    0.60486100
Ge   23.05557000    2.47963000   10.51958000      0.419228    0.07858000    0.57205500
Ge   23.12537000    8.87905000    2.90792000     -0.492523    0.15116100    0.37165500
Ge   22.86551000    9.18788000   11.52126000     -0.214321   -0.63148200   -0.61424900
Ge    0.91656000   13.81188000    5.14882000      0.397610    1.19019300    0.65009900
Ge   23.59214000   15.22114000   12.00233000     -0.746140    0.36084200   -1.23156800
Ge    0.27606000   21.50416000    4.00657000      1.304873   -0.60694800    1.00960700
Ge   21.00572000   18.28868000   12.57288000      0.365726   -0.43356900    0.90467000
Se    2.14121000    0.31468000   19.81245000     -0.313520    0.36242900    0.10623000
Se    1.98433000    1.93921000   10.14362000     -0.918121    0.45240100    0.16760400
Se    0.57002000    7.58610000    1.06826000      0.091477    0.44879600   -0.26968900
Se    1.44425000    7.61047000   10.59177000     -0.321209    0.27606100   -0.18542600
Se    0.18493000   11.54977000    0.86581000     -0.415553    0.21839600    0.20667900
Se    2.62412000   13.75631000    9.05557000     -0.016611    0.47415800   -0.34924500
Se    2.47563000   20.47069000    3.28673000     -0.627396    0.15514200   -0.22568000
Se    0.16019000   18.64692000   12.03372000      0.325932    0.55185800    0.18517800
Se    5.45320000    2.27643000    3.03191000     -0.887736    0.25112400   -0.14375300
Se    4.87880000    2.51765000   13.02609000     -0.752078   -0.12877000   -0.35176400
Se    8.64002000    5.04825000    3.62718000      0.326969   -0.44116900    0.38454100
Se    8.35227000    9.26778000   10.94500000     -0.008692   -0.40838700   -0.05887700
Se    7.78696000   11.43178000    0.28576000     -0.366012    0.38395000   -1.01680400
Se    6.63209000   15.10352000   12.24595000     -1.229206   -0.48980500   -0.02815400
Se    7.67452000   21.09490000    1.87429000     -0.511506   -0.61446900    0.85031300
Se    9.30833000   20.43318000   11.93419000     -0.630450    0.15103600    0.36990200
Se   13.77333000    0.04341000   19.58871000     -1.767070    1.14767900    0.55350400
Se   13.96784000    2.11263000   11.88575000     -0.117745    0.76809900   -0.20732200
Se   11.67274000    7.73916000   17.59716000      0.133587   -0.28815000   -0.04654600
Se   10.02161000   10.03665000    8.45064000     -0.624574    0.56438100   -1.85076800
Se   13.32688000   13.41540000    1.03575000     -0.363058    0.51354600    0.12817700
Se   13.72834000    9.08597000   10.01971000      0.669275    1.29717200    0.43279800
Se   15.60551000   15.96542000    1.81728000      0.582661    0.33456200    0.84287800
Se   12.08784000   19.00654000   10.56128000      0.544899   -0.41446100    0.77687300
Se   17.87220000    4.01794000    5.08067000      0.634769   -0.33922600   -0.75754600
Se   13.60231000    3.70672000   13.72031000     -0.170782    0.49114500   -0.51069900
Se   15.80058000    6.00745000   16.63205000      0.259402   -1.15039800    0.82882000
Se   18.90114000    3.93239000   14.03717000     -0.835040   -0.34764900    0.84891100
Se   19.60480000    9.73284000    1.04793000      0.292912   -0.35429600   -0.41007600
Se   17.09738000   17.44883000    8.20102000      0.201611   -0.42811000    0.04738300
Se   20.28189000   18.35323000    0.20200000     -0.364561   -0.33668600    1.14651400
Se   19.72084000   19.87022000   11.35791000     -0.134688    0.60481000   -0.47781800
Se    2.35157000    1.33931000    3.48205000     -0.792957   -0.16458300   -0.00818700
Se    3.23266000    6.11870000   13.30236000     -0.770345   -0.60555800   -0.42862500
Se    4.81816000   12.05092000    0.45216000      0.702721   -0.06999200    0.23086400
Se    3.86697000   11.77366000   10.50505000      0.419112    0.29834100    0.41658500
Se    4.32475000   14.46434000    0.80022000     -0.394206    0.27520900    0.19815100
Se    2.54498000   16.16288000   11.34877000      0.179006    0.41453500    0.60844500
Se    5.40256000   22.26206000   19.01654000      0.339931    0.25573500   -0.09065800
Se    5.16118000   21.60546000   11.08767000      0.568025   -0.27810300    1.03287500
Se   12.91482000    6.09018000    1.36183000     -0.094962   -0.06098600   -0.16040900
Se    8.74540000    2.97726000   10.37769000      1.340880    0.20896000    0.99596300
Se   10.67170000   11.13759000   19.48084000      0.045364    0.82220000   -0.45893300
Se   11.48636000   12.13399000   12.45684000     -0.360438    0.82981400   -1.20667100
Se   11.74006000   16.64836000    1.91893000     -0.064335   -0.86037200    0.54030000
Se   11.13442000   15.47552000   13.88888000      0.280096   -0.16932500   -0.23500400
Se   12.13256000   22.78316000   17.87202000      0.706618    0.27144100    0.37916000
Se    9.59743000   23.33183000   11.33469000      0.047559   -0.38774200    0.55737100
Se   11.88311000    3.69863000   18.01415000      0.582315   -0.88177300   -0.40881000
Se   17.74015000    7.75899000    9.88826000     -0.056859    0.59598500   -0.99309500
Se   15.91007000    7.73757000    1.38680000     -0.070396    0.59208700    0.34841800
Se   17.85621000   13.64615000   10.66199000     -0.399482   -0.25401400    0.07651400
Se   19.08989000   14.71285000    2.69943000     -0.901888    1.11675900   -0.76189500
Se   14.40561000   14.47709000    7.98891000     -2.023885   -0.72807100   -0.50741500
Se   17.49516000   22.83294000    1.25990000      0.680436   -0.22640300   -0.13249200
Se   16.90577000   21.82840000   10.74043000      0.722696   -0.51151900    0.30226300
Se   23.28926000    3.25420000    1.78441000      0.090926    0.04339500   -0.11705900
Se   23.27335000    4.96027000   11.10804000     -0.136729   -0.83471100   -0.82964800
Se   21.24554000    5.62357000    2.42723000      0.418223   -0.82638800    0.46978600
Se   21.58122000   11.09515000   11.84423000     -0.944752    1.48358800    0.14827600
Se   22.68677000   14.27082000    1.64331000     -0.722699    0.43356000    0.50993400
Se   21.04105000   15.21613000   11.77020000     -0.366093    0.83515700    0.87006800
Se   22.80500000   22.58179000    2.32627000      0.068080    0.58591100   -0.84440600
Se   21.77928000   22.48922000   15.83116000      0.293723    0.51171700    0.11530800
Se    4.34249000    4.90213000    9.47844000      0.160658   -0.81365300    0.86974100
Se    4.63606000    4.87772000   18.14060000     -0.003873    0.22554500   -0.10005000
Se    4.63115000   10.70234000    8.32588000      0.020992    0.19480200   -0.54631100
Se    3.84421000    7.41841000   15.76169000      0.244498    0.11537100    1.17932300
Se    5.64391000   20.11667000    6.14648000     -0.198537   -0.08835100   -0.44365900
Se   22.71785000   15.96442000   18.87552000     -0.219142   -0.23094200    0.34395900
Se    0.53203000   22.52564000   10.82728000      0.290461   -0.45536400   -0.22967700
Se    2.70048000   20.52479000   17.18479000      0.436559    0.64653000    0.40488800
Se    8.11621000    3.76249000    7.13006000     -0.590414    0.11103000    0.65205000
Se    5.70748000    5.22737000    0.55126000     -0.086102    0.15841200    0.11327900
Se    7.14198000   10.30531000    7.65687000      0.001289    0.17139000   -0.75704600
Se    3.29322000   10.45056000   19.15704000      0.178516   -0.57564700   -0.03942800
Se    6.30392000   17.28593000    8.69640000      0.079365    0.17293900    0.16259600
Se    6.62779000   16.72260000   17.82891000     -0.561936    0.24119900   -0.53762700
Se    9.12373000   19.68483000    8.34555000      0.116935   -0.67785700   -0.46197300
Se    8.82759000    1.99962000    0.89899000     -0.507526    0.23590600   -0.32245200
Se   13.32648000    1.68372000    8.53066000      0.116852    0.18022700    0.65292600
Se    8.49139000    4.51593000   18.60564000      0.057315    0.09679400   -0.49486900
Se   10.87827000    6.50745000    9.15831000      0.370209    0.12683300    0.22857800
Se   16.29723000   13.36872000   17.22354000     -0.062464   -0.29132200   -0.08335500
Se   13.17497000   17.21921000    7.81597000     -0.301952   -0.51380000    0.15817900
Se   15.58510000   16.70678000   17.35980000     -0.815859    0.69260900   -1.12900200
Se   15.22335000   23.25455000    7.33621000      0.306075   -0.28728000    0.64640900
Se   17.72863000    1.69436000   17.11741000     -1.423271    0.39882800   -1.67058100
Se   16.92173000    3.63101000   11.04153000     -0.114503   -0.07430100    0.58700400
Se   20.75489000    3.50006000   17.80362000      0.154834    0.68678100   -0.00752300
Se   18.00829000   10.07351000   11.26674000      0.235025   -0.85223300   -0.30854800
Se   20.37897000   10.41197000   16.06150000     -0.290757   -0.13889900   -0.04345400
Se   15.44991000   17.08732000   11.20442000     -1.065328    0.02109300   -0.87215400
Se   19.64173000   13.75651000   18.83566000      1.634049    0.68993200   -0.24701600
Se   19.25025000   21.66204000    8.44844000      0.384287    0.55233900   -0.12593000
Se   18.61295000   19.23609000    2.02376000      0.968733    0.29992300   -0.56478200
Se    6.08947000    0.26142000    8.57907000      0.182158   -0.09228000    0.61295500
Se    2.53008000    2.71162000   19.74470000      0.699087   -0.37783700   -0.07649000
Se    7.51228000    6.92157000    9.94046000     -0.028395    0.78094300   -0.50215800
Se    4.62708000    8.71025000    0.42161000      0.290987   -0.37131300   -0.16436000
Se    3.63614000   17.05552000    5.70831000     -0.202873   -0.53641500   -0.51529700
Se    6.41919000   12.58673000   16.84529000      1.024951   -0.41600600    0.07985100
Se    2.91436000   19.66741000    9.19256000     -0.211272    0.16633900   -0.90690500
Se    0.65770000   19.13437000    1.01008000      0.179141   -0.71301100   -0.83579700
Se    9.73572000    0.26496000    7.47761000     -0.164851   -0.16507600    0.11997700
Se   11.67082000    4.03257000    1.92589000      0.525323   -0.13210000   -0.73398200
Se   11.33985000    3.08984000    9.18550000      0.159370    0.09684900   -0.41200700
Se    9.09260000    7.76186000    0.22468000     -0.599179    0.41034800    0.69035200
Se   11.61901000   13.23703000    8.05258000     -0.940562    0.04473800   -0.60155500
Se    9.52212000   15.10356000   19.35072000      0.098367   -0.34428500    0.12045100
Se   13.61519000   22.47568000   10.32653000     -1.090763    0.02989600    0.57732900
Se   12.66768000   14.16379000   16.65405000     -0.972725    0.43066100    0.63436400
Se   18.24940000    1.50950000    8.25922000      0.231833   -1.12863600   -0.21812500
Se   17.97095000    5.64502000    1.47087000     -0.565893   -0.62377900    0.40123100
Se   16.28595000    7.22931000    7.84564000     -0.025562   -0.52446600    0.91722000
Se   15.76427000    9.45713000   16.57508000     -0.845257   -0.07307100   -0.62243100
Se   14.82311000   11.97535000    8.46497000      0.352065    0.51093000   -0.51568300
Se   16.73431000   12.51108000    0.28912000     -0.071336    0.01641000    0.52333400
Se   15.12775000   18.81571000    5.15877000     -1.073106   -0.34425000   -0.78408800
Se   19.43418000   21.39814000   18.40205000     -1.239163   -1.05502700    0.59702600
Se   21.94185000    0.81016000    8.87439000     -0.188525   -0.04578200    0.07597600
Se   23.19700000    0.92503000   15.94764000      0.828469    0.23693900    0.36276300
Se   21.14668000    7.03320000    9.23333000     -0.898146    0.24128900    0.21138000
Se   23.30948000    6.55707000   18.00769000     -0.723255    0.20809700    0.06566400
Se    0.01756000   11.60350000    8.29314000      0.578982   -0.42293300   -0.14987900
Se   21.19276000    8.15623000   19.27721000      0.679637    0.92005800    0.19746900
Se   21.57282000   18.35382000    8.43750000     -0.078749   -0.60529200    0.40032600
Se   19.35643000   17.02369000   17.14119000      0.346473    0.04692100   -0.86768500
Se    1.67360000   23.67580000    9.00103000     -0.018962   -0.54679300    0.39935300
Se    2.54795000   23.23193000   13.62425000      0.064093    0.55689800    0.38441300
Se    2.34656000    7.63515000    8.31227000      0.212634    0.07225800   -0.18012200
Se    1.89942000    7.90112000   17.40070000     -0.015717    0.26951300   -0.17241700
Se    0.98644000   15.33727000    7.79669000     -0.443338   -0.00722000   -0.35993600
Se    2.73592000   12.51969000   17.81446000     -1.079042    0.61121700   -0.34605600
Se    2.10114000   19.77436000    6.71901000      0.252252    0.90196700    1.14999100
Se   23.06761000   19.10492000   16.58244000     -0.622798    0.58165400   -0.90335400
Se    6.90641000   23.56428000    5.16338000     -0.506262   -0.49675200   -0.09549100
Se    6.46013000    1.62068000   17.73641000      0.135671    0.05295400   -0.21494600
Se    9.84324000    7.00436000    5.59995000      0.105787    0.15585600    0.02414300
Se    6.02759000    8.23070000   16.61451000     -0.098564   -0.05420500   -1.20157400
Se    7.33150000   14.15451000    8.13229000     -1.410236   -0.14233200    1.01056700
Se    8.50856000   18.21609000   13.08686000      0.156947    0.30448200   -0.49493800
Se    7.90352000   17.62578000    3.73452000     -0.402676   -0.47501700   -0.57603800
Se    8.60669000   16.80527000   16.17959000      0.291070    0.59158500    0.12041000
Se   14.46862000   21.75742000    5.04203000     -0.391967    0.23701500    0.08455800
Se   14.54680000   23.04137000   15.69964000      0.152972    0.79396300   -0.41414700
Se   12.88209000    8.43268000    4.44895000     -0.019610    0.28573400    0.08171200
Se   10.07691000    7.81273000   13.96419000      1.149371   -0.16830000    0.12286600
Se   14.41893000   11.63771000    4.46216000     -0.718233    0.25222400   -0.04050700
Se   14.87535000   15.14904000   13.72936000     -1.042027    0.02902800    0.56813300
Se   12.73653000   18.60229000    4.18918000      0.833728    0.70996500    0.50585200
Se   14.94475000   20.34014000   18.89253000      0.272347   -0.96095400   -0.16337200
Se   18.47921000    1.55921000    4.55633000     -0.396147    0.26217300   -0.05438200
Se   19.38681000    1.22565000   18.47415000      1.543646   -0.60850600    1.84288300
Se   19.45835000    6.93816000    6.23281000     -0.277623    0.38532900   -0.25113700
Se   19.35585000    6.78227000   15.97921000      0.118874   -0.18622800   -0.20429500
Se   20.33537000   12.26131000    5.18969000     -0.591983    0.07901500   -0.16472300
Se   17.89662000   13.79026000   13.21290000      0.796983   -0.01468200    0.06668000
Se   19.12871000   18.35547000    5.54126000     -0.242688    0.61313200   -1.14220200
Se   20.71735000   20.31370000   14.81498000      0.016470    0.14862600   -0.71312800
Se    6.04740000    6.78538000    6.19909000     -0.648223   -0.10649100    0.14289800
Se    2.03981000    2.66495000   15.94803000     -0.997234    1.19640800    0.25132700
Se    3.89619000    9.16707000    4.15115000      0.516927   -0.14928900   -0.22252500
Se    3.84483000   11.44869000   13.81791000      0.046488    0.16809400   -0.28771400
Se    3.46113000   14.73011000    5.13863000     -0.153113   -0.05560100   -0.02509200
Se    2.30458000   16.69827000   17.91091000      1.210693    0.67862400   -0.04751100
Se    1.21920000   22.31102000    6.06339000     -0.592074    0.13510100   -0.05368700
Se    2.47068000   19.85691000   12.42130000      0.232461   -0.49940100   -0.08265600
Se   12.53296000    1.83444000    5.18612000      0.230399   -0.54431000   -0.42329400
Se    8.87660000    4.71008000   16.26668000     -0.499556   -0.10202000    0.62416600
Se   11.53403000   11.21229000    6.81287000     -0.459623   -0.23349100    0.51160000
Se   10.51495000   12.17680000   17.16626000      0.039259   -0.91659300    0.40272900
Se   10.47890000   15.32898000   10.71470000     -0.712001    0.84954600   -0.45582100
Se   11.74143000   19.68944000   19.26302000     -1.056834   -0.14069300   -1.05918800
Se   10.46585000   22.15022000    4.24888000      0.147759    0.23833300    0.06651200
Se    8.07395000   20.14474000   18.09559000      0.106288   -0.39783000   -0.51666300
Se   14.19217000    4.86541000    5.39630000     -1.129286   -0.30843800    0.87784000
Se   14.95674000    5.86051000   19.14328000      0.104233    0.07945900   -1.04094500
Se   17.01081000    9.56037000    5.65788000      1.283154    0.70374800    1.53295400
Se   17.46142000    8.04527000   13.18439000      0.718072    0.10921800   -0.06222300
Se   17.35249000   13.58350000    6.04674000      0.561053    0.07621500   -0.15502200
Se   12.75160000   18.65760000   15.35330000      0.376477   -0.51795900    0.34797800
Se   16.19276000    0.09746000    4.66778000     -0.040384    0.12922400   -0.62039800
Se   16.57507000    2.99351000   13.42375000      0.743487    0.00721000    0.37130000
Se   21.77587000    3.37225000    7.07548000     -0.633796    1.59952700    0.82156300
Se   22.34364000    4.62613000   14.61408000     -0.697342    0.04313600    0.78537300
Se   18.74382000   11.43636000    9.03009000     -0.308386   -0.54002900    0.51823400
Se   22.36688000   14.06682000   15.33054000     -0.415894   -0.82571000    0.77559000
Se   20.14940000   14.79866000    7.79592000      0.688518    0.27706600    0.23699600
Se   22.69422000   16.75957000   15.77086000      0.312005   -0.21420300   -0.41298200
Se   21.62116000   21.54520000    7.91216000     -0.639018    0.24124200   -1.03794600
Se   22.80519000    0.01199000   19.41621000      0.014886    0.76562500   -0.11159700
Se    4.26240000    3.07808000    6.49956000     -0.333184    0.00245500   -0.26304300
Se    6.10986000    0.14312000   15.70577000     -0.265864    0.82973200    0.27863100
Se    3.18584000    5.87370000    3.46453000     -0.720922   -0.71307400    0.10062700
Se    4.87098000    8.26400000   11.39191000     -0.519638    0.05019400    0.75707500
Se    1.73691000   10.95941000    2.58530000      0.262386    0.09987700   -0.83261900
Se    4.34659000   14.89066000   15.47118000     -0.372257   -0.63478200   -0.20691200
Se    4.80740000   18.80106000    1.04957000     -0.528088   -0.51238500   -1.20684700
Se    4.07658000   18.39067000   13.46220000     -0.030041    0.35390700   -0.06086500
Se    9.39188000    0.55754000    2.88766000     -0.028869    0.16969600    0.29709600
Se   10.86450000    1.54015000   14.76654000      0.452636    0.31914600   -0.04049900
Se   10.72844000   10.73344000    2.89389000     -1.123538   -0.54956800   -0.44105800
Se    9.03981000    9.12419000   16.68671000     -0.080967   -0.87523400    1.29759900
Se    8.59294000   13.27213000    4.95012000     -0.017124   -0.56732800    0.49582200
Se   11.58735000   11.09392000   14.46734000     -0.327050   -0.15065500    0.80416500
Se    9.48957000   19.53505000    1.47465000      0.041276    0.51964700    0.01002000
Se   10.49449000   22.05102000   15.73991000     -0.332922    0.48131800    0.84089400
Se   17.92164000    3.75739000    8.48432000      0.102416    1.03980800   -0.05274600
Se   14.99081000    1.54853000   16.68725000     -0.560490   -0.50002400   -0.51995400
Se   16.69539000    6.81551000    3.97820000      0.142268    0.70659300   -0.25861100
Se   13.55768000    7.31529000   13.52995000      0.351148   -0.22477100    0.70577900
Se   17.49776000   11.62794000    2.50785000     -1.110328   -0.02523100   -0.44909800
Se   17.85004000   19.15170000   15.14832000      0.160778   -1.47099700    0.58222100
Se   15.12818000   16.33550000    4.26021000      0.674021    0.09954700   -0.15029200
Se   16.71445000   20.79041000   14.08222000     -0.854240    0.34785500   -0.29655600
Se   22.27225000    1.72654000    5.09428000      0.021694   -1.41628200   -0.70213200
Se   22.10390000    1.40069000   12.59643000     -0.698748    0.50054800   -0.53340100
Se    0.02464000    8.14455000    5.33773000      0.694906    0.58080700   -0.11634700
Se   21.18900000    7.92440000   12.61199000     -0.811685   -0.83481000    0.42905600
Se   23.10463000   16.44664000    5.08251000      0.404683   -0.76644300   -0.37745200
Se    0.62395000   12.42211000   14.67517000     -0.042033    0.23268600    1.75959900
Se   22.66945000   19.45741000    4.20733000     -0.228381    0.09324100    0.19887100
Se   21.44197000   21.58477000   11.63737000     -0.229999   -0.02690200   -0.51847200
Se    3.08043000    4.96018000    7.48026000     -0.255475   -0.66966300   -0.26298200
Se    2.34146000    3.95203000   13.76153000     -0.447449    0.39144200   -0.21672800
Se   22.57539000   11.58078000    4.88933000      0.040305    0.10499800   -0.52159300
Se    0.81553000    9.27669000   13.14583000      1.462604   -0.12824500    1.36451400
Se    1.25008000   14.71427000    1.90699000      0.377284    0.37328900   -0.18245000
Se    0.81222000   16.14194000   13.96127000      0.407511    1.25408100    1.19146500
Se    2.97539000   22.17361000    1.52697000     -0.094993   -1.00699100    0.49530400
Se    5.17970000   18.63592000   16.34024000      0.138568   -0.90328200    0.38740700
Se   11.05882000    4.36221000    4.12059000     -0.919939    0.00198200   -0.06911300
Se    7.16762000    2.78768000   13.00087000      1.216866    0.20531200    0.39703100
Se    6.88801000    9.72508000    3.40695000      0.013199   -0.23370900    0.61090900
Se    7.86105000   10.63568000   13.62661000     -0.324218    0.41517500   -1.51895800
Se    7.88265000   16.38716000    1.41360000     -0.170887   -0.17193400   -0.18714500
Se    8.75850000   15.34870000   14.29425000      0.866085   -0.01748500   -0.53706200
Se    7.48690000   21.77611000    8.46713000     -0.078105   -0.35426200    0.58262000
Se    6.65686000   21.47321000   14.88041000      0.365521   -0.45254900   -0.31295200
Se   15.62780000    1.17001000    2.33752000     -0.578245   -0.31180800    0.59660900
Se   10.79875000    5.54073000   14.16061000     -0.236461   -0.05002300   -0.17649700
Se   13.97296000    9.54865000    0.03306000      0.590509   -0.40689700   -0.21833500
Se   14.90985000   10.68817000   12.60028000     -0.651453    0.28781500    0.29244000
Se   10.07244000   16.62486000    6.72481000      0.120355   -0.90835200   -0.02454900
Se   12.88695000   17.26885000   12.01452000      0.870613    0.40480800   -0.68799000
Se   14.36937000   21.34866000    2.61468000     -0.065971   -0.07153500   -0.30894200
Se   15.38267000   23.15735000   13.31887000     -0.316903   -0.19401100    1.03084400
Se   19.18614000    6.07565000   19.39392000     -0.179610   -0.92690900   -0.19375500
Se   14.64627000    5.63480000    8.73668000      1.181787   -0.35605700    0.27227200
Se   20.68520000    7.51787000    3.50941000     -0.065270    0.96761900   -0.10631900
Se    0.04785000   12.77974000   12.54588000     -0.774594   -0.89181800   -1.67734200
Se   20.12569000   15.99566000    4.28424000      0.797347    0.30266700   -0.32820300
Se   18.65080000   17.32395000   13.08640000     -0.125483    0.29094000    0.31537900
Se   19.86462000   22.14631000    4.08335000     -0.590206    0.37338600    0.15741400
Se   18.45944000    0.62677000   13.43832000     -0.085200    0.28457300    0.02299900
