384
23.69824000 23.69824000 19.89960000
Ge    5.66433000    6.20022000   12.62640000      0.228987    0.17912300   -0.39543600
Ge    5.52839000    5.13994000    3.34491000      0.318558   -0.39343300   -0.89465000
Ge    2.36263000   12.00380000    7.00597000     -0.376654    0.05729300    0.21854000
Ge    9.11956000   14.29587000   16.78356000     -0.381528    0.02770400    1.09447100
Ge    4.80819000   15.63759000   10.45836000      0.377427   -0.17435900   -0.24748700
Ge    9.62328000   17.96610000   19.00568000     -0.214275    0.23249600    0.62948300
Ge    6.36649000    0.07873000   11.69675000     -0.095744   -0.15531900   -0.88506900
Ge    5.45246000    2.75808000    0.50145000      0.228836   -0.20418600   -0.03909000
Ge    9.07331000    5.40643000   10.75221000      1.554485   -0.08334600    1.06526500
Ge   10.97725000    5.60238000   19.40319000     -0.161977    0.03142100   -0.31876100
Ge   11.32421000    9.73132000   10.32916000      0.487194   -0.21047700    2.35847600
Ge   13.16809000   12.59098000   18.74704000      0.172332   -1.08141800   -0.27576700
Ge   10.59517000   17.35641000    9.26283000      0.436420    0.43217000   -1.02313700
Ge   13.81917000   16.64686000    0.39085000     -0.887850   -0.03425000   -0.14604500
Ge   11.05150000    0.58564000    9.53637000      0.389100   -0.63500400    0.13494700
Ge   15.60244000   22.69256000   18.67968000      2.077464   -0.46448200   -0.53110600
Ge   19.15265000    4.57340000   11.72537000      0.238977    0.77092900   -1.14812300
Ge   19.31723000    8.74497000   17.44671000      0.609681    0.78524200   -0.18019800
Ge   20.33228000   13.28490000   10.00607000     -0.104474   -0.18033900   -0.17841200
Ge   18.41376000   11.76937000   18.48424000     -0.646382   -0.84070700   -0.33204900
Ge   14.62918000   18.68104000    9.22187000      0.336757   -0.00314000    0.33481500
Ge   18.83941000   16.31389000   19.42821000     -0.196001    0.32986600    0.34012300
Ge   19.56266000    2.00524000   11.71290000      1.153547   -1.31804300    0.21033500
Ge   19.28179000    3.73876000    2.82165000     -0.014200    0.45758800   -0.09025600
Ge   23.54655000    6.33618000    8.90892000      0.200505   -0.80998600    0.35275600
Ge    1.63473000    3.45434000    4.20130000      0.147613    0.65863200    0.00483300
Ge    2.08511000   10.13711000    9.40925000     -0.372177   -0.12028400    0.01517400
Ge   23.67700000    9.58898000   19.20712000     -0.007508   -1.09876500    0.41461700
Ge   22.28234000   15.95075000    9.26467000     -0.405303    0.08731900   -0.60249800
Ge    1.39125000   14.69035000   19.11756000     -0.335514   -0.03520000    0.97032100
Ge   19.75314000   23.60366000    9.96031000      0.301435    0.63054500    0.20373800
Ge    1.22319000   21.08046000   19.59923000      0.267799    0.69746300   -0.02489600
Ge    5.19953000    7.08050000    9.10598000     -0.740218    1.80166900   -1.07300300
Ge    2.98825000    6.91477000   19.49367000      0.028694   -0.13225800    0.30780300
Ge    1.86044000   10.12482000    4.90183000     -1.093126   -0.25076500    1.30558900
Ge    4.19053000   12.40469000   15.91373000      0.143811    1.04978800    0.24857500
Ge    6.03232000   18.99378000    3.06247000      0.615620    0.88785900    1.32310000
Ge    0.41591000   18.08361000   18.46899000     -0.640517   -0.21727200    0.70683500
Ge    5.59012000   19.75685000    8.65408000     -0.240341    0.32772500    0.04416700
Ge    3.48388000   23.04341000   17.72264000     -0.012610   -0.22199800   -0.13993500
Ge   10.34302000    2.55175000    6.58176000      0.397697    0.31910200    0.18107100
Ge    7.03884000    9.05727000   18.61549000      0.536928    0.06532600    1.01544100
Ge    6.31060000   12.44381000    6.51822000      0.265198    0.16049500   -0.22332500
Ge    8.67011000    9.92011000    1.80447000      1.099519   -0.32919200    0.23843800
Ge    7.99676000   18.01817000    6.70416000     -0.187907    0.45537800    0.31253000
Ge    5.14497000   19.90367000   18.47033000     -0.578686   -0.18544500   -0.03901200
Ge   11.82081000   23.28993000    6.17139000      0.339300   -0.59393100   -0.44746200
Ge   10.41002000    0.82011000   17.10888000     -0.503735   -0.00155000    0.79837300
Ge   12.19117000    6.58130000    5.91074000      0.977018    0.77881100    0.30481300
Ge   14.14279000    7.98668000   17.89470000      0.398904    0.53856800    0.66732900
Ge   15.98991000   11.70400000    6.26671000     -0.002103   -1.06594800    1.94386600
Ge   16.84538000   15.03744000   15.16011000     -0.472443    0.42436500    1.10616000
Ge   12.51397000   16.27519000    4.75637000     -0.032882    0.13491400   -0.53703400
Ge   15.08376000   19.15269000   16.36021000     -0.064504   -0.85559300    0.73771400
Ge   15.66606000    0.13923000   10.05407000      0.284847    0.46839200   -0.35540100
Ge   17.34618000    4.45961000   18.04635000     -0.631078    0.56891400   -0.07844200
Ge   20.01370000    5.14601000    7.74411000      0.737901    0.19214000   -0.10805500
Ge   21.34297000    5.86050000   16.67940000      1.756794   -1.56637300   -0.60942800
Ge   19.51137000    8.93308000    8.10093000      0.027284   -0.86754100    0.09045800
Ge   22.23880000   13.39363000   17.94667000     -0.605726    0.44838100    0.01775100
Ge   19.63203000   17.19174000    7.52985000     -0.378885    0.27730000    1.24416300
Ge   20.09112000   19.37001000   16.91687000      0.024638   -0.10929100    0.44805500
Ge   20.04844000    0.16689000    6.15455000     -0.130957    0.26587400    0.39787900
Ge   19.88148000   21.57272000    1.47588000     -0.777098   -0.68845800   -0.35305600
Ge    6.76790000    2.90387000    9.20529000     -1.340607   -0.47005800   -1.55838200
Ge    4.00293000    2.27242000   17.70890000      0.219275    0.82290700    0.23194900
Ge    3.49108000    7.01711000    5.69251000      0.402424    0.24545800    0.38051000
Ge    3.50576000    9.03422000   13.72349000     -0.691889   -0.48106200   -0.81313800
Ge    1.28358000   17.61453000    6.19738000      0.477046   -1.55817700    0.09392900
Ge    1.96458000   14.84158000   16.04589000     -0.049820   -0.29893500   -0.11817000
Ge   23.55483000   19.99909000    9.92985000      0.171129    0.88191000    0.07624500
Ge    3.71215000   21.28113000   14.38645000      0.149394   -0.67813400    0.27891400
Ge    7.81500000    2.56689000    3.11415000      2.732056    0.22104700   -0.76597900
Ge    8.24255000    2.29542000   15.29202000     -0.017358    0.11524500    0.59571100
Ge    8.73584000   10.56911000    5.12369000      0.687978    0.37376400    0.08972500
Ge    7.87141000   10.84201000   15.87749000     -0.667973    1.00804600    0.43600400
Ge    9.35409000   14.15680000    7.17305000      0.973854    0.02213200   -0.88738100
Ge   14.35168000   12.34285000   15.89248000      0.555236   -0.29089500   -0.15763700
Ge    7.98567000   21.39866000    4.64747000      0.062581   -0.06988500    0.06484800
Ge    8.95590000   20.18854000   15.58502000     -0.783113   -0.56610400    0.21721800
Ge   14.81845000    1.89304000    6.46390000     -0.214641    0.53499200   -0.16380100
Ge   12.82467000    2.60144000   15.92187000     -0.231094    0.54222500    0.40763600
Ge   15.24686000    9.11607000    4.18565000     -0.547046   -0.63774500   -0.78222200
Ge   15.33990000    8.80225000   14.01581000      0.983790   -0.01742000    0.61857200
Ge   15.84094000   13.69741000    4.01862000      0.991942    0.10909600   -0.60526700
Ge   13.24426000   16.23771000   15.48935000      1.045040    0.65688500   -0.30444600
Ge   13.55607000   19.23137000    0.79461000      0.633514    0.14091900    0.38835100
Ge    9.50384000   21.35734000   19.60932000      1.189772    0.73956700    0.73400500
Ge   22.64669000    4.02959000    4.48613000      0.042909    1.35982900   -0.24365300
Ge   21.32890000    2.31907000   15.38224000     -0.761292    1.03796600   -1.05368500
Ge   22.17742000   10.11306000    6.88654000      0.514088   -0.10026200   -0.63541500
Ge   19.68106000    9.75385000   13.56605000      0.364579   -0.08258100   -0.48097900
Ge   22.26114000   16.87300000    2.44381000     -0.326473   -0.67390000    0.29437200
Ge   19.86820000   15.53444000   14.26861000     -0.281172   -0.92186600   -0.21825000
Ge   20.68089000   20.31282000    5.38101000      0.863625   -0.43171700    1.44912100
Ge   21.01215000   23.01991000   18.11762000      0.024071    0.25280800   -0.96222400
Ge    6.27929000    4.34282000    5.63469000     -0.339684    0.23749400    0.51103000
Ge    3.65912000    1.26046000   14.97739000      1.959377   -2.09118700   -1.54021900
Ge    4.84145000   11.34252000    3.13878000     -0.015798    0.19261600    0.00399100
Ge    7.84186000    8.22247000   13.23843000     -0.690803   -0.58728100   -0.35564400
Ge    5.56097000   16.54411000    0.06704000      0.315888   -0.23444500    1.14902200
Ge    2.28271000   13.66057000   11.68677000      1.378360    0.10909400   -0.71415700
Ge    4.68611000   22.52339000    5.94985000      0.679051    0.08787800    0.15753300
Ge    6.80334000   20.38057000   12.64398000      0.031962   -0.11077600   -0.44545100
Ge   15.70874000    4.59417000    3.59803000      0.069218   -0.25364000   -0.67219700
Ge   13.08297000   23.56551000   12.56288000      0.212155   -0.48265100    0.08093100
Ge   11.42692000    8.87897000    0.07208000      0.529277   -0.41360900   -0.24234800
Ge   12.65839000    9.60209000   12.85007000      0.062094   -0.42630600   -0.91035700
Ge   10.86154000   13.97601000    1.69331000      0.257429    0.55521500   -0.48545200
Ge    8.08649000   16.56262000   11.15626000      0.796928    0.62940700   -0.83043100
Ge   13.27307000   23.69822000    2.17782000      0.354395   -0.14537700    0.65721000
Ge   11.26239000   21.76154000   13.47390000     -0.021363   -0.10935800   -1.17529400
Ge   23.11305000    2.60390000   18.03990000      0.509370   -0.80068100    0.33082400
Ge   12.01399000    5.25447000   12.03638000      0.295111   -0.02103200   -0.05694900
Ge   18.04248000    8.33006000   19.69415000     -0.423265    0.39025800    0.21695400
Ge   13.19106000    7.37554000    8.62765000     -2.252196   -0.58371700   -1.33409400
Ge   19.78764000   12.42747000    2.69845000      1.288815   -0.37002600    0.27889800
Ge   16.29635000   15.29249000    8.96746000      1.325128    0.79234100    1.24076200
Ge   17.17391000   21.41593000    3.30257000     -0.187599    0.15442400   -0.56278200
Ge   18.59133000   21.84427000   12.90744000      0.284519    0.18231000   -0.80251000
Ge   23.36004000    1.14284000    2.95665000      1.140809    0.54243800    0.43456500
Ge   23.04079000    2.49298000   10.60104000      0.690088    0.08335700   -0.10366300
Ge   23.11254000    8.91967000    2.92838000     -0.383399   -0.01114100    0.33244000
Ge   22.87415000    9.21901000   11.55051000      0.458734   -1.08432500   -0.66371900
Ge    0.94602000   13.84862000    5.20814000      0.334667    1.03207900    0.55841500
Ge   23.58404000   15.21810000   12.05180000     -1.039416    0.22614100   -1.79688400
Ge    0.26303000   21.49326000    4.03670000      1.624054   -0.36269100    0.85358000
Ge   21.00014000   18.26484000   12.63107000      0.093188    0.00817600    0.48342900
Se    2.09955000    0.35361000   19.82631000      0.061303    0.00881100    0.16294400
Se    2.00037000    1.92851000   10.17125000     -1.037413    0.29155400    0.06711400
Se    0.54263000    7.60461000    1.04044000      0.034444    0.57795600   -0.22375800
Se    1.42944000    7.64600000   10.59498000     -0.263259    0.23571300   -0.30464400
Se    0.10230000   11.51431000    0.86236000     -0.343799    0.22277000    0.31558100
Se    2.67366000   13.81005000    9.02649000     -0.197099    0.17829700   -0.03521600
Se    2.47037000   20.41493000    3.26989000     -0.734787    0.36129300   -0.16505100
Se    0.17550000   18.66765000   12.00417000      0.258686    0.34266400    0.28853400
Se    5.52935000    2.38194000    3.06796000     -1.741483    0.01843500   -0.12248900
Se    4.87683000    2.55299000   13.04982000     -0.969751   -0.05392600   -0.21959100
Se    8.66513000    5.06202000    3.61664000      0.277640   -0.44726100    0.32272400
Se    8.27747000    9.27351000   10.92759000      0.046135   -0.64316300   -0.09192700
Se    7.78221000   11.44121000    0.25719000     -0.404302    0.26824400   -0.78520500
Se    6.60496000   15.13182000   12.25658000     -1.070236   -0.59498400    0.14317800
Se    7.70539000   21.06986000    1.91396000     -0.929547   -0.25582300    0.77475400
Se    9.33001000   20.38887000   11.91132000     -0.782178    0.21211100    0.42498400
Se   13.70836000   23.67679000   19.58475000     -1.607118    1.40343500    0.70468900
Se   13.95104000    2.08563000   11.89771000     -0.061481    0.93187800   -0.16094900
Se   11.70509000    7.72866000   17.58402000     -0.024918   -0.02265400    0.49907100
Se   10.03324000    9.98385000    8.43560000     -0.586035    0.58450000   -1.66483300
Se   13.35893000   13.38791000    1.04108000     -0.543823    0.53435800    0.16768800
Se   13.71158000    9.10848000    9.97602000      0.711207    1.08630000    0.26434500
Se   15.59574000   15.96505000    1.78270000      0.709156    0.26445000    1.08200400
Se   12.07687000   18.98328000   10.54432000      0.558125   -0.36681700    0.80939300
Se   17.89180000    4.09325000    5.06131000      0.644911   -0.43356200   -0.83231300
Se   13.57699000    3.70816000   13.74610000     -0.048576    0.35132600   -0.64412400
Se   15.71176000    6.01616000   16.66492000      0.298795   -1.11104100    0.67755400
Se   18.86838000    3.96891000   14.00766000     -0.728686   -0.27770500    0.74879100
Se   19.63650000    9.74756000    1.07573000      0.071897   -0.46739000   -0.57546700
Se   17.07130000   17.49019000    8.18802000      0.480154   -0.05278100   -0.18154600
Se   20.33037000   18.39729000    0.18572000     -0.605237   -0.55964600    1.18092700
Se   19.69195000   19.87792000   11.31694000      0.215150    0.16549700   -0.14162100
Se    2.36978000    1.36581000    3.45672000     -0.683069   -0.52420900   -0.05539700
Se    3.15146000    6.10235000   13.23116000     -0.224324   -0.47008000   -0.34808000
Se    4.85511000   12.02452000    0.43997000      0.507904    0.06000700    0.25890000
Se    3.88037000   11.77746000   10.49306000      0.367625    0.37231800    0.41858600
Se    4.29965000   14.41625000    0.82948000     -0.291407    0.16577300    0.16430200
Se    2.54787000   16.15809000   11.38687000      0.271728    0.24578500    0.47628100
Se    5.38307000   22.20872000   19.01108000      0.523458    0.70785700    0.06853900
Se    5.18569000   21.55094000   11.06535000      0.403838   -0.10289400    1.04692400
Se   12.94379000    6.13704000    1.34775000     -0.225318   -0.37997000    0.02974600
Se    8.74843000    2.98895000   10.41534000      1.141183   -0.04475200    0.69716600
Se   10.70404000   11.19519000   19.44702000     -0.071206    0.92763900   -0.48583400
Se   11.45961000   12.13374000   12.49040000     -0.369725    1.29532400   -1.97625400
Se   11.73833000   16.62812000    1.96475000      0.051669   -0.87513200    0.35545600
Se   11.17124000   15.45069000   13.89120000      0.023828   -0.23095300   -0.29637600
Se   12.17032000   22.79966000   17.85914000      0.220043    0.11863200    0.20494000
Se    9.60401000   23.31004000   11.31805000      0.057276   -0.33500100    0.48428700
Se   11.86616000    3.68448000   17.99785000      0.555631   -0.83108800   -0.35227700
Se   17.71044000    7.75390000    9.87225000      0.066709    0.53005500   -0.93322300
Se   15.94848000    7.81962000    1.44717000     -0.160613    0.50788000    0.45727800
Se   17.80875000   13.60848000   10.67364000     -0.091811   -0.15468600   -0.16934000
Se   19.09056000   14.72067000    2.66375000     -0.441350    0.99935200   -0.33499900
Se   14.38849000   14.55381000    7.92644000     -1.325128   -0.69579100   -0.03311300
Se   17.54083000   22.79931000    1.21470000      0.511992   -0.20165600    0.16074700
Se   16.98198000   21.84058000   10.74109000      0.493537   -0.14552200    0.25411000
Se   23.31202000    3.30097000    1.80891000      0.032318   -0.46946400    0.21935400
Se   23.33778000    4.94959000   11.13925000     -0.176484   -0.75216900   -0.72930800
Se   21.27488000    5.60401000    2.42921000      0.379737   -0.56735600    0.57461700
Se   21.56709000   11.03903000   11.86236000     -1.302710    2.05744600    0.15440400
Se   22.64230000   14.27796000    1.65510000      0.093385    0.67473500    0.56394400
Se   21.01285000   15.24051000   11.76713000     -0.110117    0.72854400    0.72707100
Se   22.79532000   22.55785000    2.33560000      0.068588    0.39077300   -0.72334600
Se   21.77529000   22.55166000   15.85572000      0.267500    0.30755600   -0.09201900
Se    4.35438000    4.95317000    9.44560000     -0.042510   -1.44701900    1.01798400
Se    4.70483000    4.92582000   18.19198000     -0.183100    0.10012000   -0.14545200
Se    4.59479000   10.74586000    8.30991000      0.109599    0.11949000   -0.55792100
Se    3.83085000    7.39420000   15.72544000      0.027400    0.19423900    0.83075500
Se    5.65315000   20.13692000    6.12116000     -0.331271   -0.10374900   -0.19409600
Se   22.69887000   15.94415000   18.88706000     -0.118373   -0.20805400    0.26164700
Se    0.55388000   22.50833000   10.81720000      0.156228   -0.62697200   -0.14284600
Se    2.71057000   20.52901000   17.15604000      0.421770    0.59481200    0.41245100
Se    8.12813000    3.81009000    7.14076000     -0.860667    0.02754300    0.63031700
Se    5.73947000    5.19750000    0.59311000     -0.052890    0.14486900   -0.06291300
Se    7.14166000   10.30238000    7.65469000     -0.015099    0.13189600   -0.72186600
Se    3.25099000   10.43310000   19.12627000      0.238066   -0.35778800    0.00057400
Se    6.29978000   17.23841000    8.67115000      0.138542    0.30585200    0.14326400
Se    6.61557000   16.64002000   17.82115000     -0.308751    0.40597800   -0.69846500
Se    9.10032000   19.69427000    8.35207000      0.274829   -0.70293300   -0.35900200
Se    8.85606000    1.99307000    0.82614000     -0.604832    0.19469400    0.41721100
Se   13.34827000    1.70182000    8.54553000      0.101841    0.19473900    0.36562200
Se    8.45738000    4.55951000   18.57993000      0.005665    0.02626900    0.06938200
Se   10.89397000    6.49261000    9.12352000      0.229040   -0.00831300    0.19033100
Se   16.30122000   13.33422000   17.16807000      0.111534   -0.28236000   -0.02020300
Se   13.24803000   17.21772000    7.80444000     -0.371138   -0.65034800   -0.00063400
Se   15.55669000   16.63811000   17.34982000     -0.723142    0.81548700   -1.10327500
Se   15.28029000   23.25105000    7.39816000      0.210598   -0.19551100    0.45554700
Se   17.75457000    1.67703000   17.11137000     -1.288574    0.34811700   -1.51061200
Se   16.91419000    3.63677000   11.05711000     -0.052040   -0.03680200    0.53969600
Se   20.78599000    3.47519000   17.79077000      0.024467    0.76238600    0.04256000
Se   17.97220000   10.05772000   11.36386000      0.272662   -0.86636800   -0.23494200
Se   20.42200000   10.38211000   16.06366000     -0.257090    0.04229000   -0.13928300
Se   15.45634000   17.09205000   11.22533000     -1.109550    0.17279200   -0.99516000
Se   19.63440000   13.73328000   18.84672000      1.763701    0.88421100   -0.21603500
Se   19.23319000   21.71537000    8.40444000      0.036961    0.41954200   -0.22827500
Se   18.58922000   19.26824000    2.02485000      1.069517    0.31502200   -0.60830700
Se    6.09537000    0.22742000    8.60870000      0.090981    0.05418000    0.59936700
Se    2.55731000    2.71402000   19.70500000      0.548079   -0.17695400    0.07290400
Se    7.49073000    6.95893000    9.92502000      0.378745    0.54651900   -0.34300900
Se    4.66666000    8.73374000    0.38701000      0.021804   -0.47488700   -0.13447100
Se    3.71272000   17.02313000    5.73107000     -0.537405   -0.38254300   -0.38408800
Se    6.40910000   12.55625000   16.81847000      1.273782   -0.29472600    0.25718000
Se    2.92289000   19.62406000    9.28073000     -0.144914    0.24230100   -0.94825900
Se    0.65295000   19.12330000    0.98437000      0.239780   -0.78504900   -0.63015000
Se    9.72618000    0.28133000    7.45794000     -0.426195   -0.41540400    0.07740900
Se   11.71426000    4.03875000    1.88169000      0.273076    0.22748000   -0.05740900
Se   11.29857000    3.05785000    9.15273000      0.349744    0.22972000   -0.32775800
Se    9.12323000    7.75314000    0.24524000     -0.741015    0.44157100    0.64420900
Se   11.63671000   13.25226000    8.03674000     -0.824552   -0.19171200   -0.50033800
Se    9.54141000   15.09964000   19.42196000      0.045810   -0.29565100   -0.04062700
Se   13.61525000   22.49661000   10.36671000     -1.053212   -0.34221400    0.33765100
Se   12.69615000   14.16661000   16.62767000     -0.934467    0.43901400    0.73075800
Se   18.27190000    1.49210000    8.21314000      0.073088   -0.30194000   -0.06059600
Se   18.04309000    5.68377000    1.45373000     -0.591224   -0.73026400    0.72454500
Se   16.29008000    7.24440000    7.85641000      0.200100   -0.24797200    0.73445000
Se   15.76167000    9.47214000   16.58280000     -0.789747   -0.10830700   -0.64084000
Se   14.83234000   11.98149000    8.54427000      0.466967    0.69123500   -1.16967200
Se   16.70296000   12.46034000    0.27279000     -0.083919    0.05564100    0.57631700
Se   15.12547000   18.84835000    5.15418000     -1.065215   -0.39601200   -0.74050000
Se   19.40875000   21.37352000   18.42837000     -0.664722   -0.88029800    0.34781900
Se   21.89927000    0.84344000    8.86827000      0.082158   -0.01766600    0.01386600
Se   23.23905000    0.92699000   15.89698000      0.997189   -0.08381300    0.61116500
Se   21.14375000    6.99557000    9.24107000     -0.870077    0.21649500    0.15097700
Se   23.33675000    6.57644000   18.02159000     -0.964539    0.13582300   -0.28160800
Se   23.69353000   11.61103000    8.35052000      0.498597   -0.52285000   -0.34769900
Se   21.17993000    8.14428000   19.23577000      0.815442    0.93507400    0.22078400
Se   21.52509000   18.40291000    8.44599000      0.274486   -0.77491700    0.51341600
Se   19.37960000   16.94882000   17.11471000      0.285636    0.07278400   -0.75845600
Se    1.62405000   23.66016000    8.99879000      0.105226   -0.18354300    0.43630100
Se    2.55896000   23.21500000   13.59689000     -0.305724    0.93933700    0.08535400
Se    2.36483000    7.65180000    8.30448000      0.101494    0.03290200   -0.12346800
Se    1.89637000    7.93094000   17.38049000     -0.183141    0.15732000    0.02675100
Se    0.99920000   15.27540000    7.76118000     -0.345713    0.08872800   -0.40740600
Se    2.72495000   12.55135000   17.82661000     -0.883363    0.38438800   -0.52078200
Se    2.11988000   19.83082000    6.71627000      0.184579    0.77995000    1.05469100
Se   23.09347000   19.14777000   16.54135000     -0.265772   -0.12370600   -0.05692100
Se    6.85789000   23.52103000    5.13253000     -0.532925   -0.21269200   -0.06925700
Se    6.42710000    1.61151000   17.72592000      0.171746    0.01769900   -0.19742200
Se    9.90362000    7.02651000    5.58828000     -0.467282    0.28249700    0.07818900
Se    5.93736000    8.25207000   16.57509000      0.187031    0.00991300   -0.95003700
Se    7.26350000   14.15137000    8.13604000     -0.651037    0.00273800    0.92230300
Se    8.53011000   18.23332000   13.11199000      0.084490    0.19396400   -0.56254800
Se    7.90864000   17.60660000    3.70350000     -0.311000   -0.50048700   -0.42222700
Se    8.61166000   16.83263000   16.13558000      0.225752    0.50114500    0.18819600
Se   14.44224000   21.76296000    5.08522000     -0.284672    0.21780000    0.19450100
Se   14.58215000   23.05464000   15.74697000      0.189602    0.68504700   -0.60031500
Se   12.85556000    8.46371000    4.49214000      0.053220    0.23888300    0.04051000
Se   10.11636000    7.81797000   13.93223000      1.000178   -0.28285800    0.13603400
Se   14.45856000   11.65610000    4.49949000     -1.382387    0.00842100   -0.36330400
Se   14.87316000   15.18565000   13.69884000     -0.784939   -0.02092800    0.70993900
Se   12.74439000   18.64008000    4.15869000      0.859752    0.73875100    0.47673800
Se   14.95920000   20.37808000   18.87537000      0.215120   -1.04492100   -0.15428100
Se   18.45516000    1.58543000    4.53161000     -0.314781    0.27321400    0.07437900
Se   19.42094000    1.20137000   18.48368000      1.154764   -0.32479900    1.64349900
Se   19.40803000    6.97435000    6.20172000      0.004809   -0.14906300    0.22129200
Se   19.33549000    6.82148000   15.97474000     -0.442118   -0.21085900   -0.56079000
Se   20.32440000   12.24728000    5.20884000     -0.002314   -0.05729800   -0.17948800
Se   17.88259000   13.82295000   13.16483000      0.705354   -0.16061100    0.08512500
Se   19.15968000   18.36330000    5.52766000     -0.330565    0.51798300   -1.21000400
Se   20.72184000   20.31940000   14.77850000     -0.048469    0.06830900   -0.86945400
Se    6.00414000    6.74849000    6.21124000     -0.446403    0.04018200    0.27799300
Se    2.05584000    2.57051000   15.90409000     -1.474982    1.65484000    0.77128600
Se    3.90141000    9.14293000    4.15609000      0.284333    0.20216600   -0.26193500
Se    3.86307000   11.42113000   13.82036000      0.046944    0.42544500   -0.49386000
Se    3.55374000   14.71928000    5.15132000     -0.292384    0.03010900   -0.01593100
Se    2.30368000   16.72241000   17.88176000      1.201051    0.35313800    0.09775600
Se    1.27669000   22.33335000    6.08462000     -0.588601   -0.05547500   -0.12370300
Se    2.42332000   19.81295000   12.35558000      0.503375   -0.50374700   -0.05758800
Se   12.49924000    1.85389000    5.20906000      0.472588   -0.76004100   -0.28840200
Se    8.88519000    4.72171000   16.32336000     -0.436544   -0.19303000   -0.04281900
Se   11.57253000   11.16643000    6.87074000     -0.495482   -0.10922200    0.44603100
Se   10.53936000   12.15814000   17.10275000     -0.004968   -0.71369000    0.32592700
Se   10.46447000   15.40267000   10.69396000     -0.770316    0.26322100   -0.04311200
Se   11.74319000   19.67699000   19.26241000     -0.916111   -0.09564900   -0.88551100
Se   10.42724000   22.18827000    4.23275000      0.198719    0.17143700    0.08442800
Se    8.12079000   20.12851000   18.10159000     -0.459588   -0.73229500   -0.90100800
Se   14.17796000    4.85777000    5.37905000     -1.064036   -0.35725300    0.83490200
Se   14.93675000    5.89856000   19.18070000      0.116871    0.07521300   -0.97573800
Se   17.05019000    9.50490000    5.72672000      0.384582    0.73433200    0.71520600
Se   17.46813000    8.06439000   13.14383000      0.508382    0.20871600    0.02433300
Se   17.34909000   13.57571000    6.07033000      0.529931    0.18755900   -0.43612700
Se   12.68593000   18.71301000   15.31554000      0.597635   -0.72817700    0.43851700
Se   16.17574000    0.06927000    4.67410000     -0.072529    0.10492400   -0.59143300
Se   16.55796000    3.03327000   13.47660000      0.919996    0.09890300    0.12596900
Se   21.76772000    3.35584000    7.05220000     -0.641420    1.67412000    1.16000400
Se   22.35425000    4.65127000   14.60930000     -0.857583   -0.09307800    0.91830600
Se   18.71576000   11.44437000    9.09212000     -0.239753   -0.35229100    0.41515000
Se   22.34285000   14.05533000   15.39330000     -0.341269   -0.75134400    0.53510400
Se   20.06747000   14.84736000    7.84510000      0.958688   -0.10208600    0.16692200
Se   22.76156000   16.71001000   15.77302000      0.036055   -0.03910500   -0.11911500
Se   21.58889000   21.58168000    8.00362000     -0.276288    0.23297800   -1.11356700
Se   22.78925000   23.67671000   19.47780000     -0.153421    0.78908300   -0.52292200
Se    4.22724000    3.06782000    6.53796000     -0.000157   -0.17498000   -0.46337300
Se    6.08391000    0.08507000   15.69704000     -0.210968    0.89555700    0.36336300
Se    3.20417000    5.84754000    3.48348000     -0.434687   -0.85789800   -0.02689800
Se    4.82591000    8.26022000   11.41696000     -0.469529    0.19929000    0.60430700
Se    1.67877000   10.99272000    2.61502000      0.276726    0.08272000   -0.72382400
Se    4.36198000   14.86161000   15.52637000     -0.376410   -0.45014000   -0.32271900
Se    4.78284000   18.82083000    1.09923000     -0.535283   -0.71259500   -1.49189100
Se    4.05708000   18.36543000   13.43170000     -0.167512    0.39319300   -0.11638300
Se    9.34586000    0.46690000    2.90817000     -0.146277    0.54280000   -0.01552300
Se   10.85978000    1.55217000   14.78641000      0.356732    0.32675200   -0.46934900
Se   10.77583000   10.67299000    2.95531000     -1.263921   -0.51256800   -0.64985200
Se    9.00727000    9.11230000   16.70745000      0.193085   -0.95603800    1.20397100
Se    8.60572000   13.32257000    4.95019000     -0.035468   -0.68009300    0.47385900
Se   11.60760000   11.07471000   14.42609000     -0.389253   -0.57549900    1.66838600
Se    9.43831000   19.53186000    1.53402000      0.435853    0.17219800   -0.26741800
Se   10.48883000   22.07940000   15.76633000     -0.330584    0.30620300    0.44287900
Se   17.89235000    3.82699000    8.48173000      0.220398    0.08173300    0.01858600
Se   14.99458000    1.52675000   16.71995000     -0.468906   -0.31080500   -0.45868400
Se   16.69080000    6.82106000    3.98000000      0.158123    0.51770900   -0.42146600
Se   13.51281000    7.33992000   13.54601000      0.259447   -0.40429000    0.68718700
Se   17.50123000   11.67295000    2.49218000     -1.152883   -0.22885400   -0.32085500
Se   17.86589000   19.15580000   15.23706000     -0.089808   -1.07958400    0.23792900
Se   15.12078000   16.31987000    4.25823000      0.581997    0.15518500   -0.32324200
Se   16.71818000   20.77363000   14.07719000     -0.455329    0.23441000   -0.23105600
Se   22.21046000    1.77831000    5.13816000      0.134546   -1.78014800   -0.95323600
Se   22.13339000    1.40339000   12.55831000     -0.803718    0.19351500    0.01715500
Se   23.69471000    8.10142000    5.35524000      0.680891    0.77889500   -0.12574500
Se   21.22010000    7.91703000   12.57045000     -0.962507   -0.96109300    0.56811600
Se   23.10055000   16.43243000    5.05127000      0.517052   -0.67820000   -0.26224700
Se    0.61259000   12.41714000   14.68070000      0.058268    0.10874600    2.17619300
Se   22.62958000   19.50119000    4.18191000     -0.159110   -0.26077200    0.18634000
Se   21.43522000   21.53752000   11.60547000     -0.139693    0.12392100   -0.51874600
Se    3.10095000    4.95943000    7.42283000     -0.546434   -0.50248100    0.01287000
Se    2.32623000    3.95557000   13.71546000     -0.475202    0.23153500   -0.32102800
Se   22.64777000   11.57814000    4.86384000     -0.627284    0.02644400   -0.00261000
Se    0.82375000    9.25933000   13.19709000      1.440977   -0.07164700    1.36617800
Se    1.31927000   14.70081000    1.87092000     -0.476079    0.14300700   -0.36621900
Se    0.78550000   16.16381000   13.94935000      0.791606    1.43865000    1.53691000
Se    2.97913000   22.17997000    1.60527000     -0.304174   -0.91027100    0.14591800
Se    5.20685000   18.59812000   16.40912000      0.150455   -0.88739000    0.29573800
Se   10.99780000    4.35196000    4.19265000     -0.569629   -0.11952300   -0.86571900
Se    7.16826000    2.77452000   12.99950000      1.249474    0.12496500    0.31800300
Se    6.90490000    9.72731000    3.43889000      0.071655   -0.20971700    0.18188600
Se    7.89124000   10.62215000   13.59929000     -0.334514    0.89310900   -0.98371300
Se    7.85701000   16.29958000    1.41233000     -0.096425   -0.10239300   -0.25840900
Se    8.73795000   15.33439000   14.29088000      1.125498    0.01611600   -0.51554700
Se    7.46329000   21.79979000    8.52186000      0.065418   -0.29909400    0.39731900
Se    6.60635000   21.43444000   14.83137000      0.383077   -0.44081900   -0.07680600
Se   15.63050000    1.12699000    2.33426000     -0.492281   -0.20974500    0.59546900
Se   10.79670000    5.50391000   14.14059000     -0.432229    0.15623600   -0.03596100
Se   13.98315000    9.55030000    0.09160000      0.570126   -0.36028300   -0.34660600
Se   14.92756000   10.67550000   12.66230000     -0.471921    0.56669400    0.16139500
Se   10.12145000   16.58871000    6.72543000     -0.412213   -0.51954200    0.26998100
Se   12.92863000   17.23891000   11.97834000      0.879518    0.44201900   -0.58709400
Se   14.41773000   21.36032000    2.68401000     -0.188932   -0.09074900   -0.49846300
Se   15.45267000   23.17754000   13.34302000     -0.519762   -0.24753400    1.03334200
Se   19.19714000    6.03619000   19.35713000     -0.347041   -0.69246400   -0.34316400
Se   14.65355000    5.65583000    8.67835000      1.388781   -1.11357400    0.38675300
Se   20.68085000    7.52835000    3.48838000     -0.019401    0.73180200   -0.15916100
Se    0.06901000   12.77982000   12.56921000     -1.062934   -0.83402700   -1.88271400
Se   20.11353000   16.01394000    4.31490000      0.536614    0.02542700   -0.79812800
Se   18.70614000   17.33604000   13.09930000     -0.343634    0.27445300    0.36248300
Se   19.85624000   22.11824000    4.14672000     -0.771770    0.75333600   -0.18088900
Se   18.44239000    0.59991000   13.43717000      0.043191    0.37138100    0.24383000
