384
23.69824000 23.69824000 19.89960000
Ge    5.74936000    6.25902000   12.33233000     -0.345288   -0.30432800   -0.15604300
Ge    5.84326000    5.27827000    2.95741000     -1.106614    0.64532500    2.55571400
Ge    2.16447000   11.92709000    6.98894000     -0.092734    0.75583800    0.35277900
Ge    9.10525000   14.39323000   16.88055000      0.179662   -0.12282700    0.23892700
Ge    4.95811000   15.44735000   10.49297000     -0.447512    0.06621700   -0.78517000
Ge    9.71392000   18.17434000   19.02454000     -0.356353   -0.63125600    0.55067000
Ge    6.36953000   23.68974000   11.31642000      0.449950    0.04515600    0.26068600
Ge    5.50045000    2.53084000    0.54505000      0.408348    0.28124400    0.27257600
Ge    9.30715000    5.34053000   10.85463000      0.298331    0.95593000    0.61472700
Ge   11.00333000    5.57619000   19.59984000      0.138923   -0.02308700   -0.27268100
Ge   11.46924000    9.81060000   10.64842000     -1.136560    0.25051600   -0.68648900
Ge   13.06533000   12.16970000   18.82791000      1.929370    0.19546800   -0.04289700
Ge   10.46000000   17.56271000    9.30606000     -0.150915    0.03483400   -1.47213000
Ge   13.69430000   16.49934000    0.23824000     -0.185943   -0.31987200    0.95201900
Ge   11.04820000    0.40733000    9.38682000      0.446489   -0.25603000    0.39382200
Ge   15.88514000   22.91299000   18.68540000     -0.378873   -0.43149000    0.43756100
Ge   19.09855000    4.88203000   11.38953000     -0.693491   -0.94752400    0.54992900
Ge   19.37267000    8.96411000   17.40564000      0.153250   -0.80835300    0.01239500
Ge   20.36794000   12.98334000    9.94318000     -0.007347    0.14898900    0.33409700
Ge   18.26685000   11.72667000   18.40729000      0.173599    0.20906900   -0.02911400
Ge   14.76971000   18.65203000    9.17855000      0.445363    0.45326600   -0.11520300
Ge   18.93141000   16.20397000   19.44465000      0.192180    0.63532200   -0.39374200
Ge   19.75896000    1.64139000   11.96649000     -0.128524    0.90706300   -0.90519700
Ge   19.45270000    3.47093000    2.88165000      0.030882    1.04700500   -0.79623200
Ge   23.66839000    6.08661000    9.12638000     -0.178974    0.00819600   -0.73014200
Ge    1.61010000    3.34672000    4.50456000      0.684527    0.69698600   -0.06243200
Ge    2.04162000   10.21929000    9.30562000      0.180314   -0.27186900    0.45724400
Ge    0.01509000    9.52913000   18.97528000     -0.251083    0.05240000    0.80706600
Ge   22.59133000   15.90181000    9.12088000     -1.272229    0.36786300   -0.04210600
Ge    1.33547000   14.49253000   19.22915000     -0.296861    0.80252600   -0.93152800
Ge   19.63115000    0.13517000    9.72044000     -0.317680    0.63346400    1.04789000
Ge    1.07369000   21.17473000   19.49857000      0.195004    0.23648300    0.45639500
Ge    4.91925000    7.44320000    9.02683000      0.280343   -0.40338800   -0.41753500
Ge    2.80621000    6.93368000   19.65694000      0.243256    0.37128300   -0.23218500
Ge    1.67736000   10.04641000    5.20643000      0.184512   -0.88760100   -0.80036200
Ge    4.24787000   12.44652000   15.90840000     -0.587011   -0.86337500    0.36720300
Ge    6.10034000   18.87599000    3.25491000     -0.743972    0.53527100    0.06953100
Ge    0.39272000   17.94025000   18.71100000     -0.267770   -0.93367200   -2.41548300
Ge    5.80120000   19.79537000    8.77728000     -0.490974   -0.22416000   -0.53749900
Ge    3.49609000   23.00947000   17.73501000      0.220577    0.32868500    0.17539800
Ge   10.35030000    2.62976000    6.69924000     -0.403548   -0.13820500   -0.70787100
Ge    6.92235000    9.19248000   18.64294000      0.311609   -0.14920500    0.29041000
Ge    6.44480000   12.50797000    6.60350000     -0.654150   -0.10760900   -0.75019400
Ge    8.85952000    9.88786000    1.72487000     -1.228138    0.33728800    0.41707600
Ge    8.00753000   18.43521000    6.68899000     -0.569783   -1.39132000   -0.73014400
Ge    4.80827000   19.84541000   18.55659000     -0.516778    0.13547500    0.45206800
Ge   11.81924000   23.15906000    6.17949000     -0.039765    0.26995900    0.05838600
Ge   10.33666000    0.99954000   17.12907000      0.107560   -0.29911100    0.46590800
Ge   12.35923000    6.67217000    6.00426000      0.283407    0.37647100   -0.34860800
Ge   14.12845000    8.27455000   18.07578000     -0.368394   -0.16071000    0.56775100
Ge   16.14002000   11.45751000    6.52100000     -0.661984    1.17131700    0.72666800
Ge   16.85575000   15.05612000   15.37707000     -0.244705    0.59891300   -0.12437400
Ge   12.36298000   16.50849000    4.58672000      0.743838   -0.01489900    0.27976900
Ge   15.10654000   18.81567000   16.42790000      0.006500    0.90662000    0.32098900
Ge   15.54433000    0.25662000    9.91295000     -0.023500    0.07898900    1.37899900
Ge   16.98264000    4.58168000   17.96069000      0.462309   -0.49505400    0.81132500
Ge   20.01823000    5.14831000    7.94433000     -0.447260    0.40468800   -1.06636700
Ge   21.23809000    5.78076000   16.54751000      0.288414    0.23051200    0.52475500
Ge   19.68693000    8.76966000    7.87472000     -0.501524   -0.21237100    0.38338600
Ge   22.00526000   13.15792000   18.07802000      0.953924   -0.34580500    0.48564200
Ge   19.71836000   17.28182000    7.56693000     -1.210829    0.29806800   -0.35622000
Ge   20.54838000   19.04295000   16.83244000     -0.155041    0.62126500    0.03060100
Ge   19.87012000    0.55172000    6.16164000      0.206788   -0.67926500   -0.67543900
Ge   20.01211000   21.49308000    1.35830000      0.167621   -0.17779400   -0.12140200
Ge    6.47642000    3.04107000    9.17225000      0.489178    0.21559400   -0.41009600
Ge    4.15166000    2.49343000   17.70366000     -0.240105    1.38613000   -1.41209800
Ge    3.66018000    6.91424000    5.64637000     -1.635742    0.49059000   -0.27145400
Ge    3.34878000    9.03548000   13.45369000     -0.571939    0.25060500    1.53967100
Ge    1.33411000   17.61582000    6.16008000      0.279449   -0.52940700    0.09435200
Ge    1.88204000   15.02384000   15.92114000      0.203091   -0.46332700    0.72695200
Ge   23.57715000   19.89747000    9.68775000      0.782932    0.84735200    0.15329600
Ge    3.21447000   21.14886000   14.08154000      0.632642   -0.23801100    0.36514800
Ge    8.35532000    2.73453000    2.95919000     -0.076456   -0.45507700   -0.94787900
Ge    8.18833000    2.12649000   15.18270000      0.449106    0.21703800    0.84485900
Ge    8.78225000   10.71731000    5.00880000      0.577865   -0.02330900    0.78501100
Ge    7.64154000   10.66446000   15.87723000      0.722890   -1.11881000   -1.56323000
Ge    9.39497000   14.00474000    7.16247000     -0.472225    0.82664500    0.51542800
Ge   14.48556000   12.21241000   15.74170000     -0.970124   -0.40931000   -0.25012300
Ge    7.85967000   21.32303000    4.81666000      0.198108   -0.33510200    0.24234000
Ge    8.86544000   20.21362000   15.45575000      0.162746    0.17306000    0.34023000
Ge   15.00189000    1.90823000    6.31891000     -0.954205    0.04826000    0.62323400
Ge   12.76475000    2.59486000   15.97931000      0.217906   -0.15042200   -0.52470100
Ge   15.10275000    9.29576000    3.83360000     -0.244976   -0.09463700    1.33649700
Ge   15.36647000    8.63662000   14.27225000      0.520816    0.09885500   -0.86574500
Ge   15.85251000   13.63210000    3.89097000      0.836558   -0.18966100    0.32648400
Ge   13.36974000   16.44177000   15.24286000     -0.839340    0.01586700    1.04961700
Ge   13.73097000   19.14667000    0.85045000     -0.248395    0.51655800   -0.59658800
Ge    9.42724000   21.46927000   19.65662000      0.783316   -0.86548400    0.14179300
Ge   22.57498000    4.24049000    4.23250000      0.685718   -0.53997700    1.19164300
Ge   21.38156000    2.34043000   15.35680000     -0.132455    0.59453700   -0.50884800
Ge   22.20609000    9.92593000    6.86946000      0.678324    0.34574600   -0.82090800
Ge   19.93526000    9.82629000   13.34983000     -0.058406   -1.04879900    0.54875600
Ge   21.97586000   16.76456000    2.33618000     -0.146111    0.41198900    0.63373600
Ge   19.77873000   15.13587000   14.04378000      0.022051    0.33756100    0.23201600
Ge   20.78341000   20.31186000    5.68156000     -0.033428    0.65425700    0.42975700
Ge   20.91465000   23.00129000   18.05067000     -0.330009   -0.92786000    0.58291500
Ge    6.19491000    4.37073000    5.52276000      0.223434   -0.58809100    0.92820700
Ge    3.98610000    0.94083000   14.81311000     -0.924990    1.22001700   -0.85780800
Ge    5.03728000   11.39218000    3.19494000     -0.115972   -0.29089000    0.15894500
Ge    7.82188000    8.29173000   13.33854000      0.497967   -0.09938900   -0.61319600
Ge    5.53789000   16.40883000    0.11740000     -0.245767   -0.10246900    0.36871200
Ge    2.45683000   13.63606000   11.86488000      0.337843   -0.25678300   -0.50717700
Ge    4.66435000   22.63905000    6.10748000     -0.050218   -0.57305100    0.47983600
Ge    6.90510000   20.55253000   12.39430000      1.324000   -0.72259100    1.03508700
Ge   15.68511000    4.60888000    3.46041000     -0.052330    0.34888300    0.18677700
Ge   13.28005000   23.37139000   12.62720000     -0.067473    0.54972600    1.17888900
Ge   11.29739000    9.29286000    0.49245000      1.049326   -0.47093000   -0.54761700
Ge   12.91079000    9.72127000   12.54479000      0.169706   -0.45573300    1.39182800
Ge   10.91120000   13.92229000    1.64978000      0.488492   -0.13771500    0.76465900
Ge    8.07170000   16.72990000   11.07344000     -0.745634    0.04500300    0.12079400
Ge   13.34160000   23.66387000    2.24320000     -0.657875   -0.53026300    0.89607300
Ge   11.11746000   21.84888000   13.23409000     -0.230172    0.44429800    0.01309400
Ge   23.25262000    2.62277000   18.00099000      0.498055   -0.71436700    0.09524500
Ge   12.34196000    5.37756000   12.23365000     -0.126009    0.21265800   -0.36331100
Ge   18.01562000    8.57507000   19.60373000      0.119901   -0.25640500    0.51040600
Ge   12.93441000    7.16453000    8.46159000      2.048724    0.70741900    0.04004700
Ge   20.08792000   12.30300000    2.90789000     -0.184446    0.62079900   -0.81793700
Ge   16.52410000   15.69578000    8.86920000     -0.561580   -1.21209400    0.40005100
Ge   17.08853000   21.44979000    3.27933000      0.768648    0.04080400   -0.55224300
Ge   18.78608000   21.82717000   12.81980000     -0.442108   -0.65362800    0.42350300
Ge   23.54716000    1.03609000    3.15903000     -0.081969    0.52001000   -0.13135400
Ge   23.16367000    2.59700000   10.80504000      0.174808   -1.40340000   -1.27890300
Ge   22.99098000    9.11042000    3.08162000     -0.090115   -0.14452400   -0.03474300
Ge   23.03452000    9.19461000   11.60181000     -0.529947    0.17277600    0.60391000
Ge    1.15884000   14.17173000    5.52623000      0.461933   -1.16065600   -3.06735100
Ge   23.36111000   15.23470000   11.98330000      0.203613    0.12953400   -0.31580700
Ge    0.45201000   21.38838000    4.24013000     -0.503391   -0.16936000   -1.05483300
Ge   21.01748000   18.25682000   12.93807000      0.173627    0.96631900   -0.48202700
Se    1.93980000    0.50808000    0.00862000      0.558597   -0.37848200   -0.17194300
Se    1.87779000    1.89016000   10.30472000     -0.832981   -0.12436700   -0.09971100
Se    0.41704000    7.78885000    0.87287000      0.355791    0.02732500    0.19463500
Se    1.31032000    7.84217000   10.54469000     -0.115866   -0.51182100   -0.45176800
Se   23.36029000   11.36931000    0.91776000      0.436532    0.16544000    0.55860300
Se    2.86309000   14.05527000    8.90168000     -0.391331   -0.55586400    0.25174900
Se    2.32010000   20.19579000    3.19446000     -0.078529   -0.40671000    0.54758900
Se    0.20138000   18.76528000   11.91824000     -1.409138   -0.56788900    0.26710600
Se    5.65204000    2.86066000    3.22936000      0.263315   -1.38507300   -0.37223500
Se    4.72806000    2.73016000   13.15635000      0.131093    0.09383600    0.30270700
Se    8.76702000    5.09837000    3.59115000     -1.046103    1.01943100   -0.06147700
Se    7.90699000    9.16110000   10.83166000      0.474831    0.60857300    0.70395700
Se    7.70551000   11.47434000    0.04523000      0.076951   -0.64518800    0.39734800
Se    6.37066000   15.19181000   12.35131000      0.826642    0.22931500    0.22875000
Se    7.60371000   20.97076000    2.24565000     -0.735495   -0.40207200    0.18322500
Se    9.28606000   20.23370000   11.86026000     -0.132698    0.92220900   -0.21302800
Se   13.33050000   23.58823000   19.69615000      1.642486    0.80186500    0.18450200
Se   13.83982000    2.10444000   11.95067000     -0.336860    0.28242700    0.08253900
Se   11.86179000    7.70366000   17.61390000     -0.011957    0.32611800    0.25461000
Se   10.03351000    9.80814000    8.19309000     -0.653400   -0.26906200    0.74900000
Se   13.41057000   13.34413000    1.07468000     -0.529934    0.22865000   -0.43518300
Se   13.74433000    9.28985000    9.72402000     -0.001062   -0.56505900   -0.57255100
Se   15.65530000   16.02193000    1.78294000     -0.081288    0.54489800    0.09054700
Se   12.11747000   18.85408000   10.57334000      0.236950    0.76286400    0.01049000
Se   18.07333000    4.37407000    4.82098000     -0.144735   -0.67918400   -0.29086700
Se   13.47761000    3.74417000   13.75695000      0.813296   -0.29724700   -0.24932300
Se   15.32057000    5.89699000   16.86920000     -0.093853   -0.02863900   -1.56063200
Se   18.65627000    4.13752000   13.93421000      1.997473    0.81337100    0.27500500
Se   19.79571000    9.72597000    1.08348000     -0.179735   -0.43071800   -0.87599700
Se   17.06231000   17.82455000    8.04143000      0.605524    0.77211400   -0.44758800
Se   20.43967000   18.48285000    0.30681000     -0.603330   -1.08172800    0.62358700
Se   19.60243000   19.87309000   11.12204000      0.219064   -0.81534800    0.16266900
Se    2.35804000    1.37110000    3.31843000     -0.351779   -0.30222900    0.46511300
Se    2.79185000    5.99235000   12.82970000      0.861850    0.05897800    0.06586400
Se    5.07335000   11.91658000    0.42813000     -0.462561    0.11036300    0.29288500
Se    4.00451000   11.87736000   10.48385000      0.109125    0.45164700   -0.06583100
Se    4.15155000   14.19497000    0.99878000      0.011252    0.26015500    0.01309400
Se    2.61805000   16.14729000   11.65150000      0.492198   -0.29168100    0.04620100
Se    5.40175000   22.11925000   19.02780000      0.419746    0.16683200    0.11021600
Se    5.25605000   21.30515000   11.07159000     -1.775793    0.33374800   -0.16688400
Se   13.02056000    6.27200000    1.31096000     -0.448654   -0.22520800    0.47596100
Se    8.84701000    2.98466000   10.63630000     -0.395223   -0.22927900   -0.65592900
Se   10.80330000   11.63598000   19.21098000     -1.607699   -0.16960800    0.36031100
Se   11.28408000   12.29502000   12.37794000      0.442805   -1.00056900    0.24500400
Se   11.74703000   16.39222000    2.23233000      0.061640   -0.10514200   -0.90935600
Se   11.32574000   15.26563000   13.85304000     -0.467588   -0.60062900   -0.24168100
Se   12.27528000   22.86375000   17.75093000     -1.260910   -0.17660400   -0.45272600
Se    9.63482000   23.14920000   11.33211000     -0.064888   -0.01161000    0.53296300
Se   11.85976000    3.49359000   17.88286000     -0.128406    0.20557400    0.89575700
Se   17.61335000    7.80534000    9.69966000      1.121864    0.43489000    1.12682500
Se   16.10320000    8.28518000    1.83123000     -0.051745   -0.46302100   -0.20311000
Se   17.60984000   13.41106000   10.65033000      0.449071    0.28087600   -0.57404000
Se   19.07836000   14.86815000    2.49486000      0.143145   -0.15438500    0.36808800
Se   14.23341000   14.88131000    7.67834000      1.336484   -0.48020500    0.39694200
Se   17.80966000   22.61574000    1.05353000     -0.820386    0.47547200    0.45748000
Se   17.38058000   21.92743000   10.78118000     -0.601035    0.47413400   -0.04542500
Se   23.43360000    3.41137000    1.99403000      0.083391   -0.92731900    0.20608100
Se   23.61152000    4.81066000   11.21234000     -0.336820    0.79120600    0.65213900
Se   21.46214000    5.48260000    2.55262000     -0.555886    1.40001600   -0.42636400
Se   21.31148000   11.11801000   11.95742000      0.751836    1.11732200   -0.74923800
Se   22.49711000   14.42523000    1.80352000      0.468850   -0.27277500    0.11452300
Se   20.89907000   15.44574000   11.83391000      0.384164   -0.12981800   -0.45119300
Se   22.81208000   22.48832000    2.32922000      0.871342    0.39075800    0.80362700
Se   21.79004000   22.87587000   15.90762000     -0.331416   -0.58959000   -0.54463400
Se    4.40711000    4.96106000    9.45436000      0.357459    0.38441700    0.42691600
Se    4.96631000    5.13736000   18.37961000     -0.928154   -0.49861300   -0.95695000
Se    4.44967000   10.98248000    8.13986000      0.202963   -0.07858000   -0.17229200
Se    3.71536000    7.31060000   15.59511000     -0.449974    0.43415400   -0.50039300
Se    5.62778000   20.21487000    5.99679000     -0.413710   -0.21801900    0.46376500
Se   22.61091000   15.82645000   18.98070000      0.337233    0.08883500    0.08084600
Se    0.64827000   22.27458000   10.77591000     -0.330129   -0.74768700    0.29254900
Se    2.82302000   20.63763000   17.10122000     -0.131581   -0.18647800    0.41118500
Se    8.01767000    4.03933000    7.30209000     -0.518258   -0.34053600    0.30622900
Se    5.92043000    5.08152000    0.69340000      0.424503   -0.18138900   -2.41124900
Se    7.16599000   10.30453000    7.53038000      0.533399    0.03377500   -0.47643300
Se    3.10939000   10.32533000   18.97570000      0.687899    0.20252400   -0.01681900
Se    6.30297000   17.08071000    8.56595000      0.255670    0.65667700    0.15203600
Se    6.51942000   16.35088000   17.67341000      0.036091    0.68766900    0.58091500
Se    9.07156000   19.64511000    8.38300000      0.960448    0.27987000    0.87961800
Se    8.87529000    2.00707000    0.59541000     -0.332990    0.50085400    0.81686800
Se   13.47167000    1.83046000    8.62652000      0.272328    0.15764100   -0.51203200
Se    8.24731000    4.75995000   18.61386000      0.099911   -0.26035800    0.02528700
Se   10.92944000    6.38598000    9.00102000     -1.888202   -0.73775100    0.57698100
Se   16.39412000   13.13811000   16.92174000      0.634609   -0.07098900    0.47682800
Se   13.53126000   17.09095000    7.71654000     -0.843820    0.67414100   -0.29115600
Se   15.30941000   16.44772000   17.13724000     -0.054941    0.17314200    0.11184200
Se   15.57483000   23.20411000    7.70218000     -0.147832   -0.39863300   -1.72356700
Se   17.77889000    1.61778000   16.95676000      0.415250   -0.14734700    0.77170700
Se   16.88361000    3.67050000   11.21893000      0.060966    0.09986000   -0.05380000
Se   20.90872000    3.48858000   17.74033000     -0.196997    0.33546000    0.22290200
Se   17.84737000    9.88603000   11.80240000      0.620516    1.73123300   -1.18462900
Se   20.63165000   10.30069000   16.00543000      0.369417    0.95591400   -0.82212400
Se   15.37558000   17.15428000   11.13012000      2.092712    0.07708200   -1.19707800
Se   19.84238000   13.73894000   18.87365000     -0.869883   -0.11275900    0.25454100
Se   19.11550000   21.98739000    8.13268000      0.197039   -0.40153600   -0.12127600
Se   18.67232000   19.45713000    1.92193000      0.612961   -0.76144700   -0.16616900
Se    6.09856000    0.11761000    8.86086000     -0.738385    0.77015300   -0.55127800
Se    2.74557000    2.72937000   19.58529000     -0.032863    0.08317500    1.18146400
Se    7.46782000    7.18511000    9.82145000     -0.163856   -1.65734400   -0.29781300
Se    4.79296000    8.74635000    0.20961000     -1.192136   -0.68426700    0.34366400
Se    3.99339000   16.84717000    5.80089000     -0.483041    0.72012200    0.08410100
Se    6.55320000   12.44350000   16.79744000      0.305129    0.87796500    0.83290200
Se    2.90483000   19.46634000    9.56807000     -0.525229    0.35129500   -0.73621300
Se    0.67625000   18.96862000    0.83553000      0.201699    0.65385900    0.76434200
Se    9.56425000    0.29819000    7.33788000     -0.324933    0.17558000   -0.30715100
Se   11.96208000    4.14670000    1.66407000      0.027439    0.26844800   -0.04901900
Se   11.18959000    2.96157000    8.97356000      0.674397    0.42230900    0.95547700
Se    9.13274000    7.78375000    0.42964000     -0.620034    0.29483100    0.05589200
Se   11.60601000   13.27847000    7.91330000     -0.229848   -0.25642300    0.24088300
Se    9.62775000   15.03618000   19.73054000     -0.284484    0.02619600   -1.10752600
Se   13.48818000   22.48303000   10.50696000      0.384128   -0.48359900   -0.89704200
Se   12.69257000   14.24954000   16.60540000     -0.503878    0.42151100   -0.01771700
Se   18.36460000    1.43403000    8.00077000     -0.661339    1.25490600    0.59095500
Se   18.31280000    5.74508000    1.48110000     -0.142302   -0.73431000   -0.33461700
Se   16.33660000    7.31715000    7.94325000     -0.865449   -0.15688300   -1.34393700
Se   15.62797000    9.54303000   16.53148000     -0.123768    0.19855800    0.45056300
Se   14.95526000   12.12094000    8.68177000      0.219096   -0.22596300   -1.09519300
Se   16.53465000   12.22815000    0.27135000      0.002623    0.25238700   -0.46769400
Se   14.95993000   18.91876000    5.01443000      0.897858   -0.73685800    0.33989800
Se   19.27024000   21.15621000   18.55877000      0.936570    0.19899500   -0.62449700
Se   21.74680000    1.03947000    8.81354000      0.820846    0.44726800   -0.31241500
Se   23.60338000    0.91868000   15.76733000     -0.107315    0.43924500    0.70046900
Se   21.01202000    6.85423000    9.30872000      0.197454    0.37274700    0.27891900
Se   23.27972000    6.69186000   18.01114000     -1.400877   -0.20760300   -0.61381100
Se   23.64889000   11.54598000    8.55679000      0.034850   -0.41556300   -0.68552200
Se   21.25625000    8.23391000   19.07635000      0.611733    0.35094900    0.33587600
Se   21.39067000   18.51301000    8.58130000      1.020606   -0.53711300    0.34415000
Se   19.53290000   16.59334000   16.90446000      0.038674    0.40719000    0.37993400
Se    1.41699000   23.62188000    9.04764000      0.267105    0.56560500    0.06322100
Se    2.50234000   23.37593000   13.40754000      0.023472   -0.25887600   -0.16982700
Se    2.44910000    7.74166000    8.22701000     -0.474210   -0.14011600   -0.72968000
Se    1.84663000    8.07961000   17.31618000      0.206375   -0.16097000    0.46322200
Se    1.01431000   15.05846000    7.56677000     -0.176984    2.06067000    2.65775500
Se    2.54202000   12.72339000   17.79267000     -0.478576   -0.70478600   -0.20936400
Se    2.22991000   20.20436000    6.84208000     -0.053143   -0.39655800   -0.03555500
Se   23.19894000   19.25001000   16.41908000     -0.014841   -1.13555500    1.10190400
Se    6.55764000   23.37291000    4.94012000      0.481087    0.94760600   -0.59226900
Se    6.34006000    1.54576000   17.65696000      0.661013   -0.26116300    0.29098700
Se   10.05638000    7.19374000    5.53446000      0.013013   -0.13806000   -0.01568900
Se    5.62663000    8.38900000   16.27567000      1.556971    0.31085700    0.24869400
Se    6.95634000   14.17191000    8.28836000      1.131614    0.14458000    0.17720300
Se    8.63433000   18.32422000   13.14060000     -0.402321   -0.88253400   -0.16196900
Se    7.90900000   17.39285000    3.50358000     -0.013229   -0.68188200    0.14031100
Se    8.66608000   17.00444000   15.93557000      0.164078   -0.56792400   -0.10078500
Se   14.28821000   21.82155000    5.32531000      0.244116    0.11624600   -0.18760400
Se   14.76655000   23.12489000   15.86114000     -0.383072   -0.98443200   -0.30834600
Se   12.76887000    8.66382000    4.69731000      0.573234    0.05928200   -0.28219500
Se   10.39811000    7.78364000   13.77792000     -0.741818   -0.12972500   -0.01526100
Se   14.37861000   11.72047000    4.62794000      0.088321   -0.24224500    0.36110400
Se   14.76688000   15.35743000   13.67190000      0.313563   -0.41852400    0.06251700
Se   12.89750000   18.94865000    4.06928000     -1.315724   -0.03314700   -0.51491900
Se   15.06001000   20.39532000   18.76016000      0.028260   -0.52846700    0.04385400
Se   18.28069000    1.74729000    4.44221000     -0.376284   -0.08541000    0.51300900
Se   19.59726000    1.12347000   18.71212000     -1.293958    0.80970800   -0.40816500
Se   19.19926000    7.07738000    6.12712000      0.651013   -0.93713700    0.45353800
Se   19.13008000    6.98260000   15.85806000      0.634450   -0.47665500    0.34118800
Se   20.30707000   12.15548000    5.31034000      0.203186   -0.08073300    0.35470900
Se   17.89402000   13.94228000   12.98197000     -0.612659   -0.73783800    0.54640200
Se   19.24402000   18.43556000    5.29747000     -0.081246   -0.48022900    0.10155700
Se   20.71106000   20.33687000   14.47487000     -0.178974   -0.24124000    0.16798400
Se    5.83702000    6.61910000    6.35202000      1.462852    0.73260000    0.68372300
Se    1.96347000    2.36201000   15.80749000      0.885931    0.69719800    0.01118100
Se    3.90090000    9.15057000    4.14042000     -0.662776    0.89390500    0.03772100
Se    3.98063000   11.40351000   13.72413000      0.219751    0.25564200   -0.37244700
Se    3.93645000   14.64808000    5.20822000     -0.685178   -0.50126000   -0.09866000
Se    2.46375000   16.85571000   17.79982000     -0.341943   -0.31687600    0.69199100
Se    1.48537000   22.40418000    6.18562000     -0.178106   -0.12097400    0.21878600
Se    2.37418000   19.55353000   12.01539000      1.317059    0.70942900   -0.13266600
Se   12.43278000    1.79138000    5.29427000      0.618542   -0.88112800    0.00494200
Se    8.89696000    4.73584000   16.44645000     -0.109096   -0.34694500   -0.22758800
Se   11.68698000   10.93717000    7.18685000      0.277959    0.48288400   -0.81589000
Se   10.64539000   11.98949000   16.80942000     -0.242517    0.02232300   -0.25979800
Se   10.27798000   15.64634000   10.68995000     -0.339658   -0.51344500    0.51160000
Se   11.65640000   19.61620000   19.16106000      0.578015    0.68143700    0.27406700
Se   10.29956000   22.36236000    4.18934000      0.732591   -0.74071100    0.35976700
Se    8.24423000   19.92526000   17.96663000     -0.255888    0.50752200    0.02193100
Se   13.95320000    4.74865000    5.38664000     -0.151010   -0.19475600   -0.23661400
Se   14.87580000    6.08579000   19.22836000      0.460528   -0.21432100    0.09099800
Se   17.22912000    9.38891000    6.10496000     -0.096683    0.76526600   -0.46517800
Se   17.52354000    8.10665000   13.02439000     -0.721670   -2.91204700    2.12862400
Se   17.38875000   13.54564000    6.08004000     -0.279022   -0.55424200   -0.56071200
Se   12.50085000   18.83114000   15.20072000      1.117472   -1.08676600    0.31885700
Se   16.08794000   23.65454000    4.60392000      0.274422    0.22292900   -0.08448100
Se   16.61968000    3.24846000   13.70079000     -0.657203   -0.47327700   -0.94679100
Se   21.62077000    3.55203000    7.15629000     -0.168142    0.44014800    0.38521200
Se   22.25706000    4.73974000   14.73118000      0.197960   -0.63566700   -0.81064300
Se   18.54801000   11.45318000    9.43771000     -0.159949   -0.23235300   -0.41301400
Se   22.19907000   13.89253000   15.72167000      0.452606   -0.09461500   -1.12799600
Se   19.84241000   15.01145000    8.11331000      0.996559   -0.19340000   -0.08912100
Se   23.01828000   16.49645000   15.83271000     -1.308888    0.42362600    0.76630200
Se   21.44555000   21.78804000    8.26407000      0.180286   -0.02853500   -0.65653400
Se   22.65039000   23.63557000   19.64764000     -0.351960    0.46581700   -1.00676800
Se    4.11134000    2.94299000    6.60579000      0.440560   -0.20259100   -0.69796200
Se    5.94358000   23.63546000   15.71400000      0.732737   -0.01465100    0.42946600
Se    3.27165000    5.55787000    3.55743000      0.216193   -0.33956400   -0.05871500
Se    4.54387000    8.31395000   11.59882000      0.612035    0.29840800   -0.96922900
Se    1.42780000   11.15080000    2.66411000     -0.194092   -0.28583200   -0.39427900
Se    4.39648000   14.72312000   15.69899000     -0.010440    1.20465300   -1.08156500
Se    4.62663000   18.78226000    1.08436000      0.555478   -0.80810600   -0.90586000
Se    3.90994000   18.28568000   13.24103000     -0.020752   -0.35730000    0.08282500
Se    9.09036000    0.16912000    2.95794000     -0.281330    1.13732400   -0.86403500
Se   10.87482000    1.65810000   14.74448000     -0.284882   -0.16576200   -0.29236000
Se   10.79751000   10.30216000    3.11442000     -0.291227   -0.00223900   -0.82383100
Se    8.86895000    8.94026000   16.95467000     -0.080968    0.25988400   -0.23681600
Se    8.64235000   13.44277000    4.99413000     -0.236937   -0.54941000   -0.40077300
Se   11.63909000   10.89618000   14.42310000     -0.328785    0.52155700   -1.18105400
Se    9.35504000   19.48578000    1.73064000      0.412556    0.82972300   -1.02741800
Se   10.40229000   22.22370000   15.86762000     -0.347304   -0.47531900   -1.14581500
Se   17.79922000    4.12189000    8.49004000      0.575375   -0.40858000    0.26865700
Se   14.97017000    1.48288000   16.82580000      0.314079    1.20538800   -0.12785200
Se   16.68402000    6.90444000    3.89686000     -0.030360    0.01741100   -0.24290000
Se   13.31808000    7.41094000   13.73800000      0.269808    0.53413700    0.29428500
Se   17.35926000   11.86240000    2.39986000      0.191170   -0.21410700    0.82836600
Se   17.86109000   19.08071000   15.64689000     -0.820221    0.29760400   -1.17361300
Se   15.16250000   16.28267000    4.17157000      0.028579    0.24894700   -0.29925500
Se   16.74001000   20.67781000   14.05399000      0.704805   -0.45662200    0.54759000
Se   21.96606000    1.76260000    5.15493000      1.194825   -0.07843600   -0.97178600
Se   22.11486000    1.35613000   12.53171000      0.170639   -0.40133200    0.89640500
Se   23.67293000    8.05494000    5.43254000      0.505985    0.72283000    0.19727300
Se   21.22044000    7.74375000   12.47795000     -0.304642    0.36036900    0.55108800
Se   23.20385000   16.26242000    4.86782000      1.026086   -0.13088000    0.11518900
Se    0.53669000   12.43216000   14.96656000     -0.620584    0.59752800   -0.41130000
Se   22.43995000   19.61840000    4.07638000      0.444519   -0.32691400    0.31381700
Se   21.39952000   21.34618000   11.36111000      0.337326    0.50476400   -0.30741000
Se    3.05412000    4.90957000    7.21674000     -0.837661   -0.18973600    1.01512900
Se    2.15703000    3.92729000   13.44646000     -0.132071   -1.06079300    0.30953200
Se   22.83172000   11.55524000    4.78194000     -1.113882   -0.10149600    0.43581900
Se    1.03352000    9.16119000   13.63288000     -1.027584    0.09946800    0.05135200
Se    1.53913000   14.64513000    1.64375000     -0.361430   -0.02953400    0.99300500
Se    0.80281000   16.48089000   14.04348000      0.450558   -0.07724100   -1.04309400
Se    2.90964000   22.06291000    1.95911000     -0.303020   -0.13440800   -1.17753600
Se    5.38047000   18.25777000   16.79099000      0.063774   -0.18830500   -0.25512300
Se   10.69728000    4.23281000    4.40471000      1.235866   -1.13428200    0.10096600
Se    7.31254000    2.71559000   13.02005000     -0.422308    0.07284400   -0.17955700
Se    7.00144000    9.70856000    3.55327000      0.149477    0.04667000   -0.79191900
Se    7.98351000   10.74744000   13.44542000     -0.284096   -0.00943300    1.20426200
Se    7.72410000   15.85491000    1.36131000      0.182011    0.23172500    0.27696600
Se    8.85653000   15.27934000   14.22194000      1.150982    0.27116100    0.43912000
Se    7.42935000   21.86466000    8.82970000      1.220075   -0.34620500   -0.38714000
Se    6.39542000   21.18123000   14.60086000     -0.025630   -0.22302100    0.28665900
Se   15.58808000    0.91230000    2.40879000      0.268620    0.86117400    0.00825400
Se   10.67625000    5.36836000   14.03546000     -0.529687    0.43534700   -0.27430800
Se   14.11820000    9.52138000    0.30461000     -0.164192    0.63184300   -0.62117500
Se   15.01289000   10.73632000   13.00747000      0.388768    0.33683100    0.25918100
Se   10.24478000   16.36911000    6.81120000     -0.754750    0.20289200    0.47432000
Se   13.22342000   17.14441000   11.75300000     -1.854639   -0.50197800    0.93248300
Se   14.58691000   21.38872000    2.90219000     -1.060305   -0.33591800   -0.99891400
Se   15.68646000   23.24211000   13.60363000     -0.548717   -0.08376200   -0.14880600
Se   19.14650000    5.76807000   19.11482000     -0.960883    0.47694200    0.41569100
Se   14.87388000    5.54863000    8.49210000     -0.601583   -0.10424600    0.78348900
Se   20.66166000    7.65532000    3.34221000      0.077480   -0.12440700   -0.18249200
Se    0.02369000   12.67234000   12.48901000      0.529273    0.41549800    0.68027300
Se   20.12353000   16.08221000    4.26543000      0.170090   -0.04071200   -0.92864400
Se   18.83229000   17.40016000   13.26192000     -0.944856   -0.46440700    0.88248300
Se   19.68461000   22.12779000    4.40439000     -0.149006    0.20095100   -0.00612000
Se   18.37536000    0.52274000   13.51576000      0.442070    0.00881700    0.61180400
