384
23.69824000 23.69824000 19.89960000
Ge    5.75633000    6.26496000   12.26960000     -0.488335   -0.28791100   -0.34614900
Ge    5.86784000    5.31661000    2.94826000     -1.003401    0.79954100    2.15300600
Ge    2.11712000   11.93806000    7.00306000      0.012307    0.76866700    0.17661900
Ge    9.10206000   14.40710000   16.92243000      0.224064   -0.11359100    0.06361200
Ge    4.97556000   15.41206000   10.47205000     -0.345110    0.08376900   -0.53678200
Ge    9.72398000   18.20425000   19.05049000     -0.504469   -0.86479200    0.52836100
Ge    6.38159000   23.67329000   11.22797000      0.473636   -0.17666600    1.28676700
Ge    5.52763000    2.49297000    0.56072000      0.348698    0.26967900    0.30610200
Ge    9.38057000    5.37225000   10.90479000      0.027313    0.49498300    0.60076300
Ge   11.01542000    5.56871000   19.62931000     -0.041679    0.07669100   -0.31317500
Ge   11.46576000    9.83319000   10.71646000     -1.388347    0.24308600   -1.37037600
Ge   13.09487000   12.07607000   18.83955000      1.769492    0.20159200    0.03365400
Ge   10.42817000   17.63879000    9.23589000      0.180148   -0.81083800   -0.68132100
Ge   13.65182000   16.45794000    0.23387000     -0.049718   -0.36710100    1.12899000
Ge   11.06765000    0.35406000    9.37489000      0.231451   -0.15860100    0.18139000
Ge   15.94644000   22.93880000   18.69841000     -0.501170   -0.50920000    0.41982700
Ge   19.06927000    4.91445000   11.33528000     -0.577053   -0.82729500    0.61822100
Ge   19.39764000    8.99452000   17.39880000      0.095521   -0.86870500   -0.22621000
Ge   20.36605000   12.92424000    9.93871000      0.134430    0.31420800    0.33111000
Ge   18.23586000   11.71146000   18.38508000      0.414996    0.34123200    0.05093600
Ge   14.81908000   18.65898000    9.17773000      0.165048    0.62856200   -0.38685400
Ge   18.95529000   16.20861000   19.43870000      0.194139    0.57133100   -0.51097900
Ge   19.80791000    1.58952000   11.98785000     -0.701628    0.95247600   -0.74412800
Ge   19.48572000    3.45727000    2.86820000      0.048056    0.88411900   -0.85333300
Ge   23.69227000    6.02663000    9.15618000     -0.270740    0.22538300   -0.94416400
Ge    1.62416000    3.35932000    4.56553000      0.826947    0.50855900   -0.19883900
Ge    2.03108000   10.22614000    9.29680000      0.334239   -0.28752500    0.48196400
Ge    0.01607000    9.50256000   18.95939000     -0.162244    0.57341200    0.70682300
Ge   22.60778000   15.90507000    9.08486000     -1.426790    0.39371500    0.08763700
Ge    1.31414000   14.48123000   19.23972000     -0.340091    0.83703900   -1.34925300
Ge   19.59589000    0.21706000    9.71253000     -0.110280    0.19689900    0.88405700
Ge    1.05553000   21.21458000   19.48857000      0.170802   -0.01262100    0.66691200
Ge    4.86076000    7.53775000    8.98535000      0.479789   -0.79125500   -0.32043200
Ge    2.77867000    6.94949000   19.68699000      0.099987    0.36550400   -0.32993300
Ge    1.63673000    9.99400000    5.24975000      0.492581   -0.34173400   -0.80629100
Ge    4.22981000   12.43970000   15.92692000     -0.217147   -0.79642700    0.25211500
Ge    6.09277000   18.88453000    3.31132000     -0.591459    0.18355100   -0.12657700
Ge    0.36453000   17.88190000   18.68188000      0.101226   -0.49659500   -1.78450400
Ge    5.82672000   19.79623000    8.78516000     -0.586026   -0.05903400   -0.42288700
Ge    3.50222000   23.00776000   17.74029000      0.349031    0.47887000    0.22871000
Ge   10.34668000    2.65128000    6.70297000     -0.602040   -0.33993400   -0.71987100
Ge    6.91221000    9.21304000   18.66759000      0.371662   -0.20730300    0.15351500
Ge    6.45142000   12.51534000    6.58732000     -0.660877    0.01779000   -0.48763600
Ge    8.87395000    9.89269000    1.72750000     -1.696500    0.33973100    0.22781600
Ge    7.99429000   18.47509000    6.67071000     -0.530238   -1.28024500   -0.64552900
Ge    4.70816000   19.81903000   18.58421000      0.050235    0.42734700    0.54373500
Ge   11.82374000   23.13510000    6.17708000     -0.285957    0.26460600    0.18332900
Ge   10.31789000    1.02252000   17.16798000      0.302383   -0.19549900    0.12422500
Ge   12.43089000    6.70948000    6.02462000     -0.219628    0.19581900   -0.80821200
Ge   14.11480000    8.33134000   18.14175000     -0.416697   -0.44096600    0.14613600
Ge   16.16013000   11.42163000    6.63163000     -0.696903    1.36998700    0.14567500
Ge   16.84009000   15.08431000   15.43050000     -0.029673    0.57161200   -0.31467600
Ge   12.35224000   16.55122000    4.54559000      0.813036    0.11804900    0.80727300
Ge   15.10931000   18.75768000   16.46157000      0.081947    1.53667000    0.14904800
Ge   15.53204000    0.28460000    9.91967000     -0.269308   -0.01447400    1.30113800
Ge   16.91456000    4.60058000   17.96713000      0.763730   -0.78922600    0.94783500
Ge   20.01658000    5.16522000    7.94411000     -0.888488    0.66148300   -0.85498300
Ge   21.26723000    5.74103000   16.52570000     -0.394540    0.85412400    1.26425200
Ge   19.70559000    8.72043000    7.84026000     -0.416443    0.10462800    0.62397400
Ge   21.97214000   13.11017000   18.12237000      1.521084   -0.62622800    0.26827400
Ge   19.69500000   17.32174000    7.57482000     -1.021477    0.18381700   -0.40825100
Ge   20.64014000   18.99853000   16.82303000     -0.428266    0.62974700   -0.09070200
Ge   19.83443000    0.61767000    6.15178000      0.283008   -0.74884500   -0.98874400
Ge   20.02543000   21.45939000    1.32924000      0.616793    0.22540900   -0.17556900
Ge    6.42975000    3.06979000    9.13727000      0.400513    0.19561700   -0.19788700
Ge    4.17277000    2.58823000   17.65730000     -0.189769    1.35591200   -1.20553500
Ge    3.64276000    6.91494000    5.63316000     -1.003296    0.22531800   -0.09934300
Ge    3.28453000    9.02183000   13.43053000      0.270970    0.58146900    1.84292100
Ge    1.35999000   17.58411000    6.15376000      0.209379   -0.50083800    0.04305400
Ge    1.87136000   15.04050000   15.91974000      0.323980   -0.17799600    0.63208100
Ge   23.60605000   19.91609000    9.64192000      0.798974    0.60510000    0.26639700
Ge    3.14860000   21.08366000   14.04429000      0.502057    0.28320500    0.16541800
Ge    8.49546000    2.75222000    2.88417000     -0.266028   -0.27763700   -0.46131300
Ge    8.18995000    2.09967000   15.19566000      0.511646    0.36543500    0.71489600
Ge    8.82217000   10.75393000    5.01358000      0.280262   -0.15162800    0.77320500
Ge    7.62207000   10.59309000   15.82238000      0.220704   -0.42528400   -0.85810200
Ge    9.39087000   14.00353000    7.16873000     -0.599118    0.70861600    0.58036300
Ge   14.48557000   12.17005000   15.69937000     -0.901460   -0.33614600   -0.08391700
Ge    7.84041000   21.28651000    4.85895000      0.253426    0.04147200    0.38816300
Ge    8.84442000   20.21939000   15.44077000      0.168056    0.21093400    0.38003400
Ge   15.00475000    1.91787000    6.30745000     -0.936834   -0.05483000    0.68900100
Ge   12.75752000    2.60240000   15.98858000      0.344936   -0.40749100   -0.92421500
Ge   15.07397000    9.31410000    3.79196000     -0.658266    0.49003500    2.05350900
Ge   15.40755000    8.61026000   14.31083000      0.165047    0.06102700   -0.95763500
Ge   15.89939000   13.62531000    3.86572000      0.395981   -0.31329800    0.58168100
Ge   13.38266000   16.48966000   15.21923000     -1.150392   -0.14201200    1.04415700
Ge   13.76201000   19.14850000    0.84361000     -0.122126    0.52363600   -0.67723000
Ge    9.45516000   21.48244000   19.68488000      0.710188   -1.13286100    0.00068700
Ge   22.57802000    4.28848000    4.19879000      1.029440   -1.17377400    2.02228700
Ge   21.37645000    2.38220000   15.32035000     -0.032425    0.22472000   -0.20009700
Ge   22.24191000    9.90259000    6.83180000      0.373783    0.44682500   -0.59438600
Ge   19.99470000    9.81302000   13.31127000     -0.240980   -1.24137400    0.73304500
Ge   21.90812000   16.73897000    2.33554000     -0.063618    0.71760700    0.56101400
Ge   19.75559000   15.05213000   14.00215000      0.343281    0.66278900    0.48142200
Ge   20.81066000   20.32724000    5.78241000     -0.124500    0.49827800   -0.14038700
Ge   20.88880000   22.95915000   18.05335000     -0.323798   -0.53619200    0.33020900
Ge    6.18407000    4.35756000    5.53493000      0.053725   -0.44922500    0.94473500
Ge    4.05551000    0.89194000   14.74335000     -1.571805    1.51450700   -1.03450100
Ge    5.07186000   11.39332000    3.21154000     -0.057519   -0.35982400    0.12779800
Ge    7.82687000    8.27880000   13.33871000      0.512609    0.21436400   -0.66579500
Ge    5.52854000   16.37774000    0.15948000     -0.344413   -0.15218900    0.04324700
Ge    2.52523000   13.62758000   11.87445000     -0.109827   -0.44963700   -0.33364200
Ge    4.66531000   22.64282000    6.15509000     -0.063008   -0.44100200    0.42372300
Ge    6.98311000   20.55237000   12.37517000      0.006775   -0.36275100    0.80036700
Ge   15.68033000    4.62182000    3.43342000     -0.055100    0.36533700    0.24442800
Ge   13.32020000   23.35020000   12.69338000     -0.239482    0.39409200    0.41189600
Ge   11.31308000    9.35269000    0.56091000      0.868134   -0.46401400   -0.73282800
Ge   12.95002000    9.72535000   12.50812000      0.907617   -0.39189100    1.92669400
Ge   10.94108000   13.91734000    1.65555000      0.299467   -0.46539000    0.86772300
Ge    8.05071000   16.77545000   11.05183000     -0.752993   -0.28293600    0.33509700
Ge   13.33905000   23.64150000    2.29363000     -0.706888   -0.54372200    0.63108300
Ge   11.07927000   21.88090000   13.17893000     -0.092531    0.50051500    0.10938200
Ge   23.30319000    2.59776000   18.00171000      0.056532   -0.79870700    0.03922900
Ge   12.41251000    5.40599000   12.26021000     -0.193165    0.30712800   -0.35391000
Ge   18.00915000    8.61961000   19.60952000      0.146519   -0.29866800    0.32535000
Ge   12.90873000    7.14600000    8.41635000      2.104899    0.50060500    0.75806600
Ge   20.15137000   12.29982000    2.92341000     -0.197979    0.59864900   -0.70440300
Ge   16.54689000   15.71647000    8.87981000     -0.373230   -0.53132800   -0.04892100
Ge   17.09457000   21.45803000    3.24618000      0.841493    0.02360100   -0.36535300
Ge   18.81196000   21.79965000   12.80304000     -0.420844   -0.53970300    0.71025500
Ge   23.59995000    1.04570000    3.20127000     -0.500133    0.24622800   -0.34349700
Ge   23.22099000    2.59976000   10.78014000     -0.768053   -1.81247500   -0.90154100
Ge   22.95995000    9.14419000    3.11584000     -0.079895   -0.01836900   -0.21307100
Ge   23.06836000    9.17779000   11.61748000     -0.651998    0.16556000    0.85114200
Ge    1.21530000   14.22210000    5.52627000      0.486941   -1.31491500   -3.23490400
Ge   23.30582000   15.24417000   11.93749000      0.584498    0.04613800   -0.09763400
Ge    0.50005000   21.36198000    4.25451000     -1.080095    0.00495400   -1.01316400
Ge   21.03391000   18.29537000   12.98590000     -0.084779    0.57971600   -0.61698900
Se    1.92680000    0.52437000    0.02194000      0.594953   -0.29285400   -0.24558600
Se    1.81561000    1.87895000   10.32725000     -0.168026   -0.08061100   -0.06673600
Se    0.39938000    7.83489000    0.84065000      0.512304   -0.27377100    0.44233500
Se    1.28026000    7.87208000   10.51867000     -0.196267   -0.57638000   -0.43565400
Se   23.28044000   11.34577000    0.94733000      0.537935    0.22821000    0.52677400
Se    2.88586000   14.08715000    8.88650000     -0.454828   -0.53068900    0.28236300
Se    2.27647000   20.15110000    3.19380000      0.209545   -0.64942300    0.53718800
Se    0.16569000   18.76695000   11.91340000     -1.079439   -0.32692600    0.12536000
Se    5.66345000    2.92302000    3.25353000      0.407715   -1.57499100   -0.53716100
Se    4.68921000    2.76857000   13.18527000      0.278598    0.09748200    0.31912500
Se    8.75819000    5.12606000    3.58459000     -0.680168    1.04989900    0.10832600
Se    7.84186000    9.13156000   10.82430000      0.628021    1.26805900    1.15469000
Se    7.68812000   11.46258000    0.00894000      0.135701   -0.56300100    0.48720100
Se    6.33806000   15.20235000   12.38027000      0.847787    0.41823400    0.05101500
Se    7.53556000   20.95399000    2.32849000     -0.170966   -0.70591200    0.00851500
Se    9.25661000   20.22824000   11.85188000      0.722646    0.95888500   -0.47627000
Se   13.30271000   23.60773000   19.73856000      1.445285    0.55417100   -0.23983200
Se   13.80797000    2.12684000   11.96478000     -0.313911   -0.05154800   -0.01380600
Se   11.89172000    7.70980000   17.63398000     -0.097690    0.38860900    0.12561000
Se   10.02066000    9.77607000    8.15269000     -0.772703   -0.36353700    0.77026200
Se   13.39903000   13.34831000    1.07189000     -0.389338    0.17630100   -0.51515500
Se   13.76288000    9.31244000    9.65221000     -0.301198   -0.52275400   -0.40334000
Se   15.67503000   16.04990000    1.80127000     -0.200077    0.57907200   -0.32633000
Se   12.14016000   18.84602000   10.58795000      0.109022    0.68775900   -0.15606400
Se   18.11234000    4.40689000    4.75434000     -0.279333   -0.62761600   -0.02464500
Se   13.47845000    3.74609000   13.74184000      0.927034   -0.32227700    0.09923100
Se   15.24665000    5.85939000   16.87933000     -0.232720    0.22456400   -1.81803500
Se   18.65068000    4.18785000   13.92630000      2.207882    0.91924000    0.34627100
Se   19.82355000    9.70311000    1.05343000     -0.170278   -0.31827300   -0.75626400
Se   17.08828000   17.93589000    7.98939000      0.409139    0.07247200   -0.15447600
Se   20.43478000   18.46440000    0.36172000     -0.308271   -1.15565400    0.40497300
Se   19.59524000   19.84686000   11.08968000      0.205418   -0.66346100    0.15048000
Se    2.34005000    1.35090000    3.29733000     -0.151935   -0.08325000    0.69558400
Se    2.74722000    5.97461000   12.74710000      0.808220   -0.24472600    0.25989800
Se    5.10635000   11.90077000    0.43610000     -0.429363    0.08785800    0.32094200
Se    4.03665000   11.91447000   10.48410000      0.134377    0.38495000   -0.06442600
Se    4.12222000   14.15649000    1.03478000     -0.024478    0.36574400    0.00784500
Se    2.64743000   16.13829000   11.71217000      0.534313   -0.32561200   -0.03450600
Se    5.42775000   22.12774000   19.04055000      0.097662   -0.30360300   -0.01633400
Se    5.21811000   21.27108000   11.07291000     -1.095590   -0.00536000    0.21946300
Se   13.01761000    6.28078000    1.31781000     -0.207591    0.32495900    0.53227700
Se    8.85769000    2.96745000   10.66440000     -0.263182    0.05034700   -0.60777400
Se   10.78478000   11.73392000   19.16561000     -1.425632   -0.23232700    0.49592900
Se   11.25618000   12.31680000   12.34265000      0.552144   -1.26139600    0.36005200
Se   11.75249000   16.33130000    2.27210000     -0.029505    0.07754500   -1.41902900
Se   11.34234000   15.21048000   13.83622000     -0.390924   -0.52364600   -0.17759300
Se   12.25296000   22.86751000   17.70769000     -1.086423    0.01463100    0.04848500
Se    9.63771000   23.11222000   11.35531000     -0.003181    0.12329500    0.40332400
Se   11.86252000    3.44912000   17.87357000     -0.369270    0.42991100    1.27479100
Se   17.62307000    7.82927000    9.68290000      1.033448    0.37006000    1.06370200
Se   16.12857000    8.37350000    1.91356000      0.322167   -0.78726700   -0.93271200
Se   17.58752000   13.37750000   10.62274000      0.266207    0.53040400   -0.33338100
Se   19.08281000   14.90033000    2.47500000     -0.079503   -0.27999600    0.11695600
Se   14.23201000   14.94016000    7.64746000      1.665137   -1.40246300    0.27803800
Se   17.84932000   22.58791000    1.03940000     -0.988405    0.66608800    0.45005800
Se   17.44590000   21.95996000   10.79124000     -0.641792    0.48562700   -0.17045400
Se   23.45952000    3.40084000    2.04374000      0.084260   -0.89651100    0.06173200
Se   23.65354000    4.79145000   11.23440000     -0.381905    0.86249800    0.86503900
Se   21.49234000    5.48616000    2.58390000     -0.945491    1.86241900   -1.15561800
Se   21.26104000   11.18543000   11.96152000      1.043968    1.20598600   -0.89947200
Se   22.48869000   14.46095000    1.84315000      0.409720   -0.69696800   -0.00432300
Se   20.88979000   15.48925000   11.84389000      0.252601   -0.20215200   -0.53677500
Se   22.84238000   22.48447000    2.34421000      0.905624    0.46285700    0.92063300
Se   21.79008000   22.92723000   15.89523000     -0.531187   -0.55968500   -0.22638000
Se    4.42433000    4.94790000    9.47937000      0.407318    0.67288000    0.36393600
Se    4.99010000    5.16349000   18.38942000     -0.972002   -0.35378900   -1.11218200
Se    4.42953000   11.02960000    8.09444000      0.262215   -0.09021300   -0.11520300
Se    3.67329000    7.30476000   15.55659000     -0.074471    0.63862200   -0.39998400
Se    5.60745000   20.22352000    5.98376000     -0.419351   -0.27453900    0.57291900
Se   22.60311000   15.80459000   19.00370000      0.323603    0.06602700   -0.00313800
Se    0.65650000   22.19582000   10.77821000     -0.240691   -0.30795800    0.19156000
Se    2.84851000   20.66346000   17.10850000     -0.427458   -0.36015200    0.19688300
Se    7.96776000    4.07665000    7.35044000     -0.177865   -0.37428100    0.12841200
Se    5.96959000    5.05818000    0.64791000      0.381168   -0.38707800   -1.57545400
Se    7.18616000   10.30689000    7.48687000      0.578338    0.08955100   -0.46435800
Se    3.10264000   10.30960000   18.94557000      0.691207    0.13879300   -0.05025900
Se    6.31152000   17.07096000    8.54900000      0.299075    0.63890200    0.12908800
Se    6.49855000   16.32334000   17.64389000      0.390506   -0.07997400    1.14482000
Se    9.09603000   19.63365000    8.41074000      0.775997    0.45169000    0.65039000
Se    8.85891000    2.02467000    0.58239000     -0.198343    0.33924600    0.45518800
Se   13.50155000    1.86296000    8.62902000      0.329864    0.06585600   -0.42760300
Se    8.19780000    4.79220000   18.65368000      0.484958   -0.34182600   -0.69591400
Se   10.88889000    6.34475000    8.99380000     -1.473627   -0.48251700    0.37441000
Se   16.43664000   13.09831000   16.88840000      0.365046   -0.06394600    0.34869300
Se   13.56388000   17.06236000    7.68822000     -1.167321    1.88397500   -0.21288900
Se   15.25004000   16.42964000   17.08293000     -0.042925   -0.23899300    0.64015500
Se   15.62876000   23.18526000    7.72332000     -0.151150   -0.37835600   -1.67601700
Se   17.79128000    1.60289000   16.94008000      0.427955   -0.15815200    0.92588900
Se   16.88065000    3.68049000   11.25761000     -0.112381    0.04359000   -0.14899600
Se   20.92391000    3.51177000   17.73537000     -0.024283    0.10677000    0.28785900
Se   17.83933000    9.88008000   11.86301000      0.683413    1.26308300   -0.76664600
Se   20.68454000   10.31475000   15.96841000      0.220741    0.80135200   -0.80723200
Se   15.39143000   17.17341000   11.06727000      2.256474   -0.13254600   -0.83375700
Se   19.88700000   13.74502000   18.88091000     -1.691200   -0.08084400    0.49788300
Se   19.08798000   22.02932000    8.06905000      0.456535   -0.24373800    0.06683300
Se   18.72112000   19.48193000    1.88719000      0.107863   -1.23403200    0.11180000
Se    6.07897000    0.12050000    8.91406000     -0.628596    0.68295100   -1.61837200
Se    2.78346000    2.73767000   19.59664000      0.092844   -0.03710500    1.03125100
Se    7.46980000    7.20225000    9.79676000     -0.305634   -2.20253900   -0.47374000
Se    4.78256000    8.72459000    0.18150000     -1.177184   -0.60271200    0.36143700
Se    4.03082000   16.82890000    5.81391000     -0.426484    0.66043000    0.05284000
Se    6.60261000   12.45138000   16.82672000      0.230437    0.27982500    0.31850900
Se    2.88353000   19.44842000    9.59861000     -0.363532    0.24237100   -1.07529700
Se    0.69013000   18.94371000    0.82808000      0.082932    0.67113700    0.23851400
Se    9.51103000    0.29829000    7.30296000     -0.087131    0.39815600   -0.14582500
Se   12.01316000    4.18445000    1.62130000     -0.109155   -0.28987100    0.18722400
Se   11.19283000    2.95842000    8.95725000      0.550088    0.28345300    1.13651200
Se    9.10798000    7.80238000    0.47355000     -0.483803    0.22367200   -0.05418200
Se   11.58660000   13.27301000    7.89159000     -0.116785   -0.26086600    0.21567100
Se    9.63722000   15.02065000   19.76386000     -0.306857    0.09764100   -1.27758800
Se   13.46337000   22.45284000   10.49859000      0.515287   -0.01341800   -0.24088500
Se   12.67016000   14.27947000   16.60997000     -0.507533    0.49339800   -0.21334100
Se   18.36729000    1.45377000    7.97350000     -0.837764    1.41275700    0.70604000
Se   18.35769000    5.73076000    1.48977000     -0.122125   -0.74876200   -0.61209700
Se   16.33222000    7.33354000    7.93095000     -0.948841   -0.21994900   -1.14298100
Se   15.58915000    9.56128000   16.52153000     -0.004863    0.27622600    0.82309800
Se   14.99061000   12.15327000    8.65956000      0.093789   -0.38055100   -0.65123000
Se   16.50023000   12.18945000    0.26915000      0.015130    0.23892600   -0.66328300
Se   14.92913000   18.90902000    4.98145000      1.542535   -0.77572200    0.73265500
Se   19.26747000   21.11274000   18.56884000      0.920729    0.23076800   -0.67614000
Se   21.74134000    1.09229000    8.79183000      0.742787    0.43078700   -0.13155600
Se   23.68699000    0.92291000   15.76725000     -0.504870    0.40185400    0.62225400
Se   20.98089000    6.83749000    9.33038000      0.415992    0.39863100    0.27621900
Se   23.22326000    6.71317000   17.98824000     -1.322600   -0.26316600   -0.68429400
Se   23.64614000   11.51442000    8.57612000     -0.026366   -0.33606400   -0.68520100
Se   21.29612000    8.27256000   19.05649000      0.360843    0.14244000    0.33665100
Se   21.39802000   18.51310000    8.62458000      0.840606   -0.56824100    0.16110600
Se   19.56647000   16.53259000   16.86622000     -0.008440    0.57837800    0.55156800
Se    1.38666000   23.63575000    9.06281000      0.103493    0.20412600    0.13751900
Se    2.47546000   23.43385000   13.35454000      0.302580   -0.82732700   -0.01220600
Se    2.45368000    7.75785000    8.19325000     -0.576584   -0.21540600   -0.89261200
Se    1.83725000    8.10429000   17.31836000      0.408542   -0.11370500    0.43518600
Se    1.01116000   15.06732000    7.57751000     -0.137433    1.98769200    2.62520400
Se    2.48669000   12.74083000   17.77305000     -0.491532   -0.69242300   -0.06261300
Se    2.25081000   20.27785000    6.87583000      0.005491   -0.69454100   -0.01772700
Se   23.21881000   19.23137000   16.43032000      0.026550   -1.04289100    1.00085700
Se    6.50295000   23.37682000    4.88486000      0.457136    0.62393400   -0.50071600
Se    6.34658000    1.52356000   17.64829000      0.473175   -0.19514100    0.37562900
Se   10.06670000    7.23130000    5.52330000      0.458152   -0.25439600    0.02689800
Se    5.61680000    8.42835000   16.21659000      1.299233    0.14299000    0.25640300
Se    6.93213000   14.18581000    8.33446000      1.110437   -0.07071600   -0.11245700
Se    8.64615000   18.32452000   13.13418000     -0.486833   -1.06980900   -0.06710900
Se    7.90987000   17.32299000    3.46515000     -0.284426   -0.45347900    0.16953000
Se    8.68195000   17.02602000   15.89465000      0.213063   -0.70213000   -0.02992500
Se   14.26259000   21.83790000    5.37120000      0.360407    0.10562800   -0.29360600
Se   14.79533000   23.10911000   15.86273000     -0.439268   -0.55126200    0.24477000
Se   12.76946000    8.70938000    4.73127000      0.566624   -0.00247100   -0.29749800
Se   10.44086000    7.76760000   13.74568000     -1.019140    0.01002000    0.02873600
Se   14.33451000   11.72356000    4.65691000      0.538319   -0.17923800    0.20134200
Se   14.74583000   15.38219000   13.68047000      0.509957   -0.51756700   -0.18917500
Se   12.91385000   19.02154000    4.04754000     -2.059447   -0.25404000   -0.78936700
Se   15.08239000   20.37294000   18.73483000     -0.022703   -0.48690900    0.17569000
Se   18.23349000    1.77908000    4.43908000     -0.372798   -0.08024200    0.45554400
Se   19.59196000    1.13686000   18.75956000     -1.130883    0.47313100   -0.70195900
Se   19.17668000    7.06961000    6.13236000      0.654832   -1.04183100    0.27287600
Se   19.08941000    7.00177000   15.83308000      0.911816   -0.42576100    0.60587200
Se   20.31462000   12.13257000    5.34205000      0.195978   -0.03711900    0.23675500
Se   17.89008000   13.94662000   12.96594000     -0.974477   -0.90899800    0.34159700
Se   19.25148000   18.43876000    5.24171000      0.093805   -0.36314400    0.26564500
Se   20.69979000   20.33209000   14.40711000     -0.060884    0.03406900    0.54204300
Se    5.84928000    6.61622000    6.40481000      0.865335    0.72161700    0.42827800
Se    1.95452000    2.35377000   15.79813000      1.122611    0.81079600   -0.05437700
Se    3.87936000    9.18881000    4.13580000     -0.645055    0.73559900    0.05407200
Se    4.01217000   11.41982000   13.68550000      0.129791    0.06748500   -0.14748600
Se    3.98963000   14.62024000    5.21684000     -0.717955   -0.41176600   -0.06068300
Se    2.50092000   16.87365000   17.80627000     -0.643290   -0.41923600    0.57007300
Se    1.51865000   22.40926000    6.21123000     -0.245947    0.25494800    0.00495700
Se    2.41803000   19.51575000   11.94284000      0.394460    0.77669100   -0.00028700
Se   12.44278000    1.74477000    5.31069000      0.582378   -0.70774800   -0.03885500
Se    8.89912000    4.72767000   16.43567000     -0.309557   -0.39147000    0.38922900
Se   11.70800000   10.90135000    7.23391000      0.345311    0.60997700   -0.86245100
Se   10.65926000   11.95272000   16.74563000     -0.228236    0.08787800   -0.10921600
Se   10.22528000   15.65518000   10.72063000     -0.302644    0.07926700    0.11115000
Se   11.64545000   19.61786000   19.14043000      0.783437    0.87262900    0.33747600
Se   10.29691000   22.37745000    4.19380000      0.593966   -0.54945200    0.12426000
Se    8.25177000   19.88311000   17.92542000     -0.254879    0.77081900    0.20920600
Se   13.89338000    4.71597000    5.38878000     -0.022645   -0.02271100   -0.34839400
Se   14.87768000    6.11807000   19.22844000      0.428879   -0.15723500    0.15517600
Se   17.25453000    9.39906000    6.16772000      0.036819    0.58061700   -0.50030700
Se   17.51715000    8.04889000   13.05432000     -0.681752   -2.35772100    1.65777300
Se   17.39367000   13.52811000    6.05842000     -0.276456   -0.57804200   -0.50047700
Se   12.50125000   18.81730000   15.19018000      1.071485   -0.97051600    0.34360800
Se   16.07585000   23.63940000    4.57822000      0.412114    0.18588400    0.26372200
Se   16.63434000    3.28526000   13.71999000     -0.865910   -0.57317000   -0.90980900
Se   21.57880000    3.62567000    7.20761000      0.318273   -0.12266100    0.06491500
Se   22.22470000    4.74156000   14.75672000      0.865148   -0.79263300   -1.81056700
Se   18.51097000   11.45138000    9.49908000     -0.189579   -0.61771100   -0.56981700
Se   22.17947000   13.84998000   15.76072000      0.488316   -0.01838800   -1.15111300
Se   19.83480000   15.02680000    8.16758000      0.938464    0.11067000   -0.18077700
Se   23.02893000   16.46927000   15.87155000     -1.103854    0.34090000    0.38173200
Se   21.42827000   21.83001000    8.28547000      0.007136   -0.04841400   -0.47517800
Se   22.60767000   23.64678000   19.64541000     -0.219880    0.40935400   -0.90071000
Se    4.10811000    2.90198000    6.59050000      0.296155    0.15464700   -0.48929200
Se    5.92867000   23.61862000   15.73159000      0.898531   -0.26992500    0.50500000
Se    3.29054000    5.47724000    3.56794000      0.051183   -0.11411100   -0.04481700
Se    4.49517000    8.34152000   11.61977000      0.977349    0.01908000   -1.30920900
Se    1.37730000   11.17461000    2.66013000     -0.231943   -0.31977400   -0.39442300
Se    4.40204000   14.72643000   15.69971000     -0.064682    0.97032400   -1.05878000
Se    4.60844000   18.74503000    1.03865000      0.506833   -0.84683200   -0.67588400
Se    3.87298000   18.26570000   13.19876000      0.307628   -0.61500100    0.42889100
Se    9.03191000    0.15129000    2.94236000     -0.145698    0.94581400   -0.71095900
Se   10.87380000    1.67939000   14.71224000     -0.355815   -0.28239900    0.08679500
Se   10.77516000   10.22244000    3.11384000      0.107188    0.22994900   -0.57195600
Se    8.84096000    8.90699000   17.00603000     -0.021077    0.34971300   -0.43066300
Se    8.64122000   13.44304000    4.99709000     -0.218721   -0.42325800   -0.41681000
Se   11.63206000   10.86539000   14.40890000     -0.306082    0.70096400   -1.30812100
Se    9.37249000   19.48181000    1.73636000     -0.017077    1.24921000   -0.99188500
Se   10.37244000   22.23986000   15.85361000     -0.261453   -0.40024800   -1.10239400
Se   17.79726000    4.16246000    8.50072000      0.562258   -0.41693200    0.28754000
Se   14.97074000    1.51541000   16.84244000      0.359352    0.75018400   -0.30331000
Se   16.68267000    6.92349000    3.86519000      0.017024    0.04423800    0.07850200
Se   13.28519000    7.43168000   13.79201000      0.509130    0.67117300    0.21543800
Se   17.32321000   11.89378000    2.39938000      0.431359   -0.22859200    0.87419000
Se   17.83045000   19.07106000   15.69714000     -0.703391    0.28696700   -1.37168100
Se   15.17701000   16.28449000    4.13926000     -0.049000    0.27831300    0.00983700
Se   16.76518000   20.64450000   14.06257000      0.679783   -0.46157100    0.61258100
Se   21.94917000    1.73605000    5.11793000      1.294276    0.17119100   -0.75378800
Se   22.09417000    1.32342000   12.57555000      0.760500   -0.16004800    0.47059000
Se   23.68936000    8.07843000    5.45179000      0.388370    0.26302100    0.22657100
Se   21.20121000    7.70588000   12.48276000     -0.146148    0.58496000    0.49938000
Se   23.25804000   16.21872000    4.83278000      1.013580   -0.05498500    0.14855800
Se    0.50607000   12.45267000   15.02925000     -0.607916    0.66406800   -0.49057800
Se   22.41535000   19.62118000    4.06051000      0.423845   -0.08846500    0.57210500
Se   21.40124000   21.32335000   11.29952000      0.256443    0.39673200   -0.28438400
Se    3.00934000    4.89671000    7.20994000     -0.583903   -0.46043300    0.80039300
Se    2.10990000    3.88806000   13.39604000      0.187484   -0.77780900    0.34687900
Se   22.82514000   11.54591000    4.78216000     -1.049177   -0.08144700    0.38691600
Se    1.06855000    9.14227000   13.73343000     -1.983846    0.10819600    0.00323300
Se    1.56075000   14.63281000    1.61247000     -0.100965    0.00771500    1.47505100
Se    0.83181000   16.55776000   14.04536000      0.168533   -0.27562500   -0.79768500
Se    2.87927000   22.02260000    1.99983000     -0.124298    0.05945300   -1.32205000
Se    5.42157000   18.17104000   16.86628000     -0.500563    0.78699100   -0.64377700
Se   10.67057000    4.17722000    4.43594000      0.828143   -1.00087900    0.12244000
Se    7.34080000    2.70406000   13.02076000     -0.500405    0.13233100   -0.17438900
Se    7.02391000    9.70292000    3.54991000      0.179452    0.12601200   -0.64403400
Se    7.99081000   10.79472000   13.44879000     -0.181357   -0.34873900    0.99542700
Se    7.70202000   15.77111000    1.35122000      0.278401    0.34156700    0.48605300
Se    8.92502000   15.27586000   14.21503000      0.918985    0.19771900    0.46412700
Se    7.46033000   21.86521000    8.88420000      0.975217   -0.21469700   -0.35484000
Se    6.35531000   21.12250000   14.56364000      0.023263   -0.19159800    0.29177800
Se   15.58217000    0.88766000    2.43246000      0.177350    0.99833300   -0.29668000
Se   10.62818000    5.35635000   14.01009000     -0.419790    0.31702900   -0.39376700
Se   14.14890000    9.52562000    0.32630000     -0.412400    0.96001300   -0.34483500
Se   15.04484000   10.76996000   13.08563000      0.252162    0.07710000    0.19167400
Se   10.23941000   16.32957000    6.84792000     -0.586660    0.35117000    0.24847600
Se   13.25295000   17.11927000   11.72597000     -2.029909   -0.57304000    0.93955200
Se   14.59070000   21.38392000    2.91197000     -1.014162   -0.30041600   -0.96211000
Se   15.71023000   23.24964000   13.66325000     -0.450875   -0.06942900   -0.43568500
Se   19.10401000    5.72102000   19.06886000     -0.837260    0.63937700    0.53627400
Se   14.91696000    5.50543000    8.48283000     -0.774544    0.11471800    0.67565000
Se   20.66036000    7.68113000    3.30495000      0.037384   -0.19455000   -0.16331400
Se    0.01349000   12.65033000   12.48004000      0.815283    0.58835900    0.67468200
Se   20.13311000   16.09083000    4.21276000      0.111179    0.04621700   -0.43642600
Se   18.81602000   17.40026000   13.32364000     -0.500302   -0.44773500    0.85101900
Se   19.63491000   22.14885000    4.44815000     -0.012562    0.05576100    0.18038000
Se   18.37209000    0.51200000   13.55460000      0.710280    0.05963600    0.26354200
