384
23.69824000 23.69824000 19.89960000
Ge    5.73323000    6.25901000   12.04934000     -0.677479   -0.36110400   -0.77203600
Ge    5.86861000    5.48135000    3.05432000     -0.328749   -0.14706200    0.43123100
Ge    1.97469000   12.02635000    7.05031000      0.198417    0.51341500   -0.23374600
Ge    9.11438000   14.43444000   17.04643000      0.391485   -0.22835900   -0.28513400
Ge    5.01071000   15.31107000   10.38371000      0.107232    0.06309800    0.24883700
Ge    9.71250000   18.22296000   19.16935000     -0.425471   -0.65176500    0.16736700
Ge    6.46268000   23.60014000   11.11572000      0.479473   -0.57640000    1.73996100
Ge    5.62904000    2.40791000    0.63338000     -0.015577    0.22366800    0.34432500
Ge    9.58925000    5.49561000   11.09979000     -0.781698   -0.19162300    0.25281800
Ge   11.04063000    5.55766000   19.68143000     -0.306914    0.31955700   -0.76176300
Ge   11.36050000    9.91843000   10.82185000     -0.393085    0.10986200   -0.49496800
Ge   13.28703000   11.81291000   18.88352000     -0.229097    0.59235000    0.27054400
Ge   10.37564000   17.77430000    9.00961000      1.562996   -2.37059600    1.21510000
Ge   13.52649000   16.30680000    0.30755000      0.319168   -0.36389300    0.85751900
Ge   11.14331000    0.19002000    9.34568000      0.061003    0.27985300   -0.17607900
Ge   16.08682000   22.97823000   18.76751000     -0.672156   -0.27028300    0.23012000
Ge   18.94205000    4.94999000   11.22319000     -0.063554   -0.42134900    0.54357300
Ge   19.48376000    9.02514000   17.34727000      0.261925   -0.28623000   -0.62673600
Ge   20.37552000   12.77660000    9.94828000      0.026139    0.20948300   -0.03749800
Ge   18.17422000   11.69286000   18.32731000      0.553582    0.29756900    0.25194000
Ge   14.96885000   18.73908000    9.13061000     -0.530680    0.84989600   -0.86072700
Ge   19.03819000   16.26023000   19.37334000     -0.122510    0.01674600   -0.77827700
Ge   19.88732000    1.50940000   12.00769000     -0.795395    0.90338100    0.32546600
Ge   19.59348000    3.47987000    2.76084000      0.202205    0.57846100   -0.76117800
Ge    0.03815000    5.87042000    9.17701000     -0.564931    0.47031800   -0.51463700
Ge    1.73312000    3.43234000    4.73298000      0.852938    0.11626600   -0.25336100
Ge    2.02941000   10.22130000    9.31301000      0.498752   -0.46236600    0.58900800
Ge    0.01210000    9.48264000   18.95175000      0.334773    1.35562300    0.00644300
Ge   22.53744000   15.94736000    8.99031000     -1.583088    0.29447500    0.50145200
Ge    1.22717000   14.51315000   19.17391000      0.040170    0.73781600   -0.37626800
Ge   19.48559000    0.46365000    9.74303000      0.149293   -0.63934600   -0.01702500
Ge    1.01252000   21.32351000   19.52035000      0.206188   -0.46672400    1.02388300
Ge    4.73556000    7.75335000    8.84160000      0.996617   -0.97647700   -0.08274400
Ge    2.69764000    7.02173000   19.75068000     -0.241518   -0.04564400   -0.45851200
Ge    1.58092000    9.84667000    5.31741000      1.677757    1.69555700   -0.41975000
Ge    4.17881000   12.37687000   15.99032000      0.669106    0.37049200   -0.23714500
Ge    6.02640000   18.90418000    3.46599000     -0.459924   -0.92053200   -0.34559400
Ge    0.30563000   17.69100000   18.49634000      0.863398    0.72733400    0.43792900
Ge    5.85769000   19.80341000    8.78134000     -0.485555    0.36616900   -0.12511100
Ge    3.55287000   23.04692000   17.77774000      0.527146    0.50500100    0.26662200
Ge   10.28719000    2.67199000    6.67435000     -0.481237   -1.06155800    0.55116000
Ge    6.91687000    9.24816000   18.74559000      0.381840   -0.75574300   -0.09037700
Ge    6.41933000   12.54518000    6.51176000     -0.455395    0.25232100    0.12129500
Ge    8.77899000    9.93198000    1.74433000     -1.164661    0.29026200   -0.33654400
Ge    7.91867000   18.50445000    6.58254000     -0.212690   -0.54001500    0.31476200
Ge    4.44383000   19.78480000   18.70169000      1.473156    0.78621800   -0.12087000
Ge   11.80556000   23.07561000    6.18881000     -0.618654   -0.23666800    0.32483400
Ge   10.29391000    1.07628000   17.28416000      0.577836   -0.02817600   -0.12316000
Ge   12.60487000    6.81646000    6.00351000     -0.980847   -0.67448300   -0.95300400
Ge   14.04758000    8.45281000   18.32194000      0.236084   -1.06241000   -1.16997500
Ge   16.18759000   11.41472000    6.92757000      1.121946    0.15811100   -2.75280200
Ge   16.79964000   15.20334000   15.55650000      0.303501    0.02997600   -0.69075900
Ge   12.38929000   16.69727000    4.50565000      0.739921    0.32605900    1.01341200
Ge   15.12381000   18.72154000   16.56978000     -0.123054    1.57639000   -0.10179900
Ge   15.46415000    0.35406000   10.01401000     -0.475658   -0.61418000   -0.07162700
Ge   16.76167000    4.59177000   18.05779000     -0.010990   -0.64681800    0.48477600
Ge   19.92565000    5.29060000    7.88871000     -1.134483    1.16277400   -0.22943200
Ge   21.30033000    5.70037000   16.56546000     -1.322053    0.51678700   -0.17926200
Ge   19.73425000    8.59416000    7.79635000     -0.145824    0.74350500    1.10740200
Ge   21.99531000   12.92293000   18.26834000      0.701383   -0.04144200   -0.02769000
Ge   19.55236000   17.44195000    7.57127000     -0.007341   -0.29849500   -0.09632400
Ge   20.86322000   18.90964000   16.78526000     -1.441069    0.39359900   -0.24365700
Ge   19.75876000    0.75001000    6.03888000      0.476120   -0.79328000   -0.82943100
Ge   20.12736000   21.39696000    1.22668000      0.582353    0.78832900   -0.36063400
Ge    6.30622000    3.16607000    9.03256000     -0.372078   -0.37707900    0.79497100
Ge    4.22499000    2.95624000   17.44888000     -0.055869   -0.09820600    0.13523600
Ge    3.53818000    6.92226000    5.59738000      0.331729   -0.34433600    0.44869700
Ge    3.14972000    9.02759000   13.48628000      0.911851    0.58151700    0.70688600
Ge    1.44987000   17.45312000    6.13976000      0.266209   -0.13847800    0.18067200
Ge    1.86618000   15.08636000   15.95487000      0.463034    0.31134600    0.03899000
Ge    0.05040000   19.99728000    9.52755000      0.258368   -0.60154200    0.03273400
Ge    2.98837000   20.92967000   13.94027000      0.466207    0.88295000   -0.02527300
Ge    8.88751000    2.80247000    2.67033000     -0.557273    0.44748000    1.73627400
Ge    8.23176000    2.05453000   15.28081000      0.347779    0.73173700    0.15866500
Ge    8.95562000   10.84349000    5.08862000     -0.215435   -0.44646000    0.60727600
Ge    7.56051000   10.36766000   15.63403000     -0.691792    0.56688600    1.70445100
Ge    9.32071000   14.04342000    7.23448000     -1.019317   -0.13429100    0.47003000
Ge   14.42528000   12.02161000   15.57648000     -0.348917    0.03710100    0.69750700
Ge    7.79965000   21.20133000    5.01793000      0.137430    0.99498900    0.30208500
Ge    8.79251000   20.24991000   15.42359000      0.198205   -0.03968100    0.22554100
Ge   14.94225000    1.93941000    6.32802000     -0.572156   -0.26244400    0.64321700
Ge   12.76068000    2.58711000   15.94357000     -0.064779   -0.35236200   -0.33135500
Ge   14.92957000    9.42230000    3.84900000      0.035935    0.87793100    1.65758300
Ge   15.52800000    8.52908000   14.35692000     -0.615089    0.05672600   -0.14468300
Ge   16.05059000   13.58091000    3.84237000     -0.827553   -0.04027900    0.79017800
Ge   13.33224000   16.59762000   15.22192000     -0.454812   -2.08174800    0.23363500
Ge   13.84330000   19.19664000    0.77299000     -0.155719    0.52928800   -0.28758500
Ge    9.59239000   21.42583000   19.76338000      0.520483   -0.99521200   -0.42085000
Ge   22.67001000    4.34072000    4.25954000      0.435867   -0.76633700    1.12560700
Ge   21.35041000    2.50657000   15.20759000     -0.418698   -0.66528600    0.44143600
Ge   22.35816000    9.86394000    6.68750000     -0.689937    0.35302600    0.52437100
Ge   20.14758000    9.68988000   13.24614000     -0.391612    0.02793600    0.24164000
Ge   21.70984000   16.73368000    2.36375000      0.930931    0.93334900   -0.44074100
Ge   19.71964000   14.86276000   13.91989000      0.469147    0.96749800    0.51563000
Ge   20.87868000   20.39969000    6.05060000     -0.297506   -0.16752500   -1.27322000
Ge   20.78835000   22.82093000   18.07195000      0.081354    0.98093100   -0.56139500
Ge    6.14874000    4.29535000    5.64127000     -0.319078    0.20873100    0.34219400
Ge    4.14969000    0.85540000   14.46303000     -0.751433    0.54369200   -0.12979900
Ge    5.17016000   11.37471000    3.26894000     -0.090531    0.10804600    0.00101500
Ge    7.88096000    8.26295000   13.28582000      0.198498    0.40278400   -0.55515300
Ge    5.47074000   16.27427000    0.27716000     -0.253528   -0.36826200   -0.58834700
Ge    2.70951000   13.55791000   11.88233000     -0.775172   -0.71616000    0.11947700
Ge    4.67162000   22.62805000    6.32253000      0.234965    0.16602500   -0.05769700
Ge    7.13599000   20.53759000   12.37156000     -2.822420   -0.09671100    0.27076900
Ge   15.66164000    4.68539000    3.37251000     -0.026583    0.16269900    0.12086800
Ge   13.41734000   23.31242000   12.89854000     -0.618284    0.23618800   -0.72349700
Ge   11.41671000    9.49612000    0.70154000      0.121300   -0.45672400   -1.12649700
Ge   13.13401000    9.70688000   12.54078000      0.039840   -0.23754000    0.69699800
Ge   11.04163000   13.85316000    1.73783000     -0.632127   -0.83159700    0.52342700
Ge    7.93126000   16.88066000   11.01501000     -0.501533   -0.75941100    0.51025300
Ge   13.27967000   23.53916000    2.47853000     -0.265348   -0.03890000   -0.37304000
Ge   10.97607000   22.00278000   13.03991000      1.095319   -0.43536900    1.25936600
Ge   23.45700000    2.45504000   18.00695000     -0.247801   -0.89286200    0.09818000
Ge   12.59742000    5.52183000   12.31202000     -0.572460    0.33210600   -0.04950000
Ge   17.99911000    8.73212000   19.64598000     -0.080074   -0.45134700   -0.18212800
Ge   12.97501000    7.11791000    8.37859000      0.715755   -0.17723000    1.68986900
Ge   20.32587000   12.33867000    2.92949000     -0.202684    0.59191000   -0.15142200
Ge   16.59507000   15.75576000    8.89608000     -0.187908    0.13013300   -0.66249200
Ge   17.16860000   21.48499000    3.13141000      0.194914   -0.00183200    0.38870400
Ge   18.85915000   21.67983000   12.81461000     -0.361930   -0.13342200    0.58623500
Ge   23.69456000    1.08319000    3.29473000     -1.276145   -0.20789700   -0.72700400
Ge   23.27373000    2.49995000   10.65666000     -3.416922    0.15168200    0.44038500
Ge   22.86659000    9.24343000    3.19323000      0.374490   -0.04889300   -0.54248000
Ge   23.12026000    9.14091000   11.73426000     -0.268130    0.21525700    0.91423200
Ge    1.41890000   14.28666000    5.34088000      0.260092   -0.55109300    0.05492400
Ge   23.20217000   15.27443000   11.80083000      1.170386    0.02809500    0.20345100
Ge    0.53909000   21.29020000    4.23430000     -1.367653    0.30646600   -0.10179400
Ge   21.06365000   18.42606000   13.06538000     -0.544607   -1.05298100   -1.50544700
Se    1.93046000    0.55826000    0.04111000      0.571055    0.10020000   -0.39083800
Se    1.66966000    1.83749000   10.39003000      2.552506   -0.17500300   -0.03294600
Se    0.38889000    7.93629000    0.78896000      0.668428   -0.95111600    1.03517700
Se    1.17019000    7.91914000   10.41372000     -0.535217   -0.52564100   -0.04399700
Se   23.08203000   11.29616000    1.07274000      0.257544    0.40412800    0.27403900
Se    2.91862000   14.14804000    8.85918000     -0.573104   -0.40603300    0.24457400
Se    2.17348000   19.96572000    3.22030000      0.793407   -0.38921800   -0.06628400
Se   23.69426000   18.75788000   11.90101000     -0.098200    0.21295500   -0.13733400
Se    5.72931000    2.99710000    3.27671000      0.494750   -1.04413000   -0.93337700
Se    4.59868000    2.89307000   13.28876000      0.573899    0.38987500   -0.19632500
Se    8.71006000    5.26725000    3.57861000      0.682190   -0.11904200    0.30946500
Se    7.69073000    9.12778000   10.87943000      0.486618    0.10420000    0.18659700
Se    7.65022000   11.39517000   19.83624000      0.452330    0.19202600    0.57881200
Se    6.29901000   15.26742000   12.45642000      0.563507    0.59986100   -0.71813200
Se    7.33462000   20.85103000    2.56527000      0.687629   -0.31620900   -0.55652000
Se    9.26680000   20.27087000   11.78714000      2.179244    0.11889500   -0.23549400
Se   13.31564000    0.00085000   19.83949000      0.867249    0.05663200   -0.63265600
Se   13.68814000    2.17899000   11.99572000     -0.329019   -0.70441400   -0.55238200
Se   11.96780000    7.75543000   17.70054000     -0.678041    0.22274800   -0.12919100
Se    9.93673000    9.65902000    8.08472000      0.080815    0.10611700    0.51661800
Se   13.34845000   13.37390000    1.02361000      0.475649    0.07927900   -0.56114700
Se   13.78621000    9.33597000    9.41388000     -0.707250   -0.80702200    0.04713000
Se   15.71486000   16.17504000    1.81303000     -0.332429    0.54657300   -1.15994900
Se   12.20844000   18.86096000   10.61451000     -0.044030   -0.16940200   -0.28446400
Se   18.20255000    4.46277000    4.56223000     -0.582764   -0.48544900    0.47819400
Se   13.55047000    3.73743000   13.71810000      0.887680    0.32820500    0.76961400
Se   15.01387000    5.76198000   16.78765000      0.374013    0.09698100   -0.55923400
Se   18.76828000    4.38799000   13.92662000      0.275972   -0.26366400    0.17494200
Se   19.89460000    9.62283000    0.91617000     -0.162670    0.39384000   -0.02422000
Se   17.18995000   18.25847000    7.82978000      0.044269   -0.54277800    0.17201500
Se   20.42053000   18.31924000    0.54333000      1.101213   -1.28545000   -0.37944000
Se   19.59144000   19.72643000   11.00760000      0.422496   -0.11087700    0.40824800
Se    2.29765000    1.28939000    3.29225000      1.023589    0.16537400    1.04858600
Se    2.67173000    5.89520000   12.52450000      0.624474   -0.45773600    0.63646600
Se    5.17653000   11.86166000    0.48540000     -0.332245    0.07576400    0.40931500
Se    4.14330000   12.05033000   10.48045000      0.286424    0.12638100   -0.13953800
Se    4.03282000   14.07431000    1.14294000      0.046604    0.58636800   -0.05156400
Se    2.77482000   16.09084000   11.88589000      0.441277   -0.13648600   -0.37248000
Se    5.50189000   22.11983000   19.07673000     -0.495664   -0.84614700   -0.07613800
Se    5.06249000   21.16005000   11.10080000      0.749605   -0.14337100    0.41041000
Se   13.00542000    6.35680000    1.37861000      0.252918    1.16570000    0.62237800
Se    8.87467000    2.93071000   10.70675000     -0.067865    0.50880000   -0.28564100
Se   10.65764000   12.00765000   19.05240000      0.419046   -0.48814700   -0.17184100
Se   11.21163000   12.28459000   12.25910000      0.417974   -1.24723300   -0.05493400
Se   11.76902000   16.16678000    2.27766000      0.127389    0.79672800   -1.10655200
Se   11.37920000   15.01286000   13.77465000      0.846816   -0.09527300   -0.08062800
Se   12.11091000   22.88751000   17.59964000     -0.672136    0.33112700    0.86791600
Se    9.64083000   23.02728000   11.44077000     -0.605153    1.37378100   -0.87589600
Se   11.84200000    3.34596000   17.93866000     -0.169749    0.14144600    0.66305500
Se   17.70952000    7.91881000    9.68623000     -0.036194   -0.14243400   -0.35408200
Se   16.24105000    8.57819000    2.07347000      0.464958   -0.59537400   -0.97751900
Se   17.53130000   13.33206000   10.52987000     -0.169568    1.33046800    0.42797600
Se   19.07691000   14.96327000    2.41313000     -0.626456   -0.91080000   -0.39576600
Se   14.35049000   14.99803000    7.57790000      1.076033   -0.46603700    0.44412300
Se   17.89303000   22.55605000    1.02744000     -0.669685    0.72311300    0.18645600
Se   17.58876000   22.09198000   10.80071000     -0.801257    0.46814300   -0.43245500
Se   23.54229000    3.31488000    2.18656000     -0.099135   -0.09349700   -0.49049600
Se    0.04468000    4.77981000   11.35530000     -0.841344   -0.25864400    0.09984200
Se   21.51763000    5.62304000    2.59021000     -0.084921    0.49105600   -0.43723800
Se   21.17420000   11.46546000   11.92146000      0.484074    0.16225200    0.28988800
Se   22.49072000   14.50951000    1.95894000      0.136319   -0.71309100   -0.13866600
Se   20.86761000   15.60406000   11.83474000     -0.382049   -0.27622600   -0.35688800
Se   22.99405000   22.51014000    2.45510000      0.403513    0.59191300    0.56913100
Se   21.74504000   23.04013000   15.85668000     -0.764275   -0.54856700    0.55209000
Se    4.50579000    4.96228000    9.58193000      0.397652    0.78864700    0.55375000
Se    4.98617000    5.22582000   18.33463000     -0.902071    0.40277100   -0.86394500
Se    4.38219000   11.16050000    7.95468000     -0.076289   -0.29072300    0.04463800
Se    3.55613000    7.34022000   15.41513000      0.689920    0.81381100   -0.19106900
Se    5.51746000   20.22266000    5.98766000     -0.255188   -0.57241400    0.59883600
Se   22.59631000   15.73825000   19.07050000     -0.172045   -0.33525800   -0.03044600
Se    0.67109000   21.96124000   10.79901000      0.159738    1.33102100    0.45662000
Se    2.87998000   20.71293000   17.13477000     -1.027218   -0.25866400   -0.36980100
Se    7.82493000    4.16359000    7.49155000      1.184832   -0.05934000   -0.57501400
Se    6.13673000    4.95457000    0.44937000     -0.388724   -0.39347200    1.04329800
Se    7.29201000   10.32289000    7.32077000      0.546549    0.25547900   -0.42968400
Se    3.13179000   10.26661000   18.85194000      0.578450   -0.23124600    0.06477700
Se    6.36345000   17.09050000    8.50804000      0.402434    0.73477100    0.16632500
Se    6.48351000   16.18582000   17.66162000      0.500928   -1.16202000    1.80394600
Se    9.20297000   19.64408000    8.51616000     -0.644474    1.17481000   -0.89392200
Se    8.80158000    2.09138000    0.53994000      0.021294   -0.32989000   -1.56542400
Se   13.61759000    1.96307000    8.61074000      0.353266   -0.01970800   -0.02751600
Se    8.10256000    4.86129000   18.70509000      1.484741   -0.41577900   -1.21562000
Se   10.69645000    6.20124000    8.98104000      0.467744    0.38621200   -0.44825100
Se   16.57670000   12.97392000   16.80306000     -0.488184    0.11922300   -0.34653900
Se   13.57445000   17.13460000    7.58504000     -0.562194    1.15574000   -0.12890500
Se   15.06976000   16.34524000   16.98892000      0.015254   -0.32969300    1.61367300
Se   15.78132000   23.11010000    7.68256000     -0.216447    0.13336200   -0.54303200
Se   17.85323000    1.54914000   16.96359000      0.130653   -0.06394100    1.08981600
Se   16.85359000    3.70871000   11.35678000     -0.650939   -0.28799200   -0.42531400
Se   20.97086000    3.57482000   17.74215000      0.194155   -0.61550900    0.27634800
Se   17.86735000    9.90201000   12.01658000      0.866331   -1.19667900    0.38355400
Se   20.84623000   10.40134000   15.80858000     -0.480986   -0.06774700   -0.25813800
Se   15.57187000   17.20690000   10.84834000      0.287236   -0.76170000    0.78456300
Se   19.89366000   13.75520000   18.94136000     -1.118096   -0.51803800    0.26772700
Se   19.04131000   22.14156000    7.89142000      0.393094    0.05221500    0.46837700
Se   18.84546000   19.46011000    1.80866000     -1.304351   -1.03754600    0.97963500
Se    5.97593000    0.17268000    8.90559000     -0.093398    0.23324000   -2.13347800
Se    2.91242000    2.75578000   19.68867000      0.573374   -0.16303200   -0.07918000
Se    7.45719000    7.11194000    9.70193000     -0.013525   -0.37918200    0.69545700
Se    4.67202000    8.62204000    0.12227000     -0.637697   -0.16221000    0.20540300
Se    4.11045000   16.81164000    5.85280000     -0.516880   -0.04569900   -0.14638400
Se    6.76451000   12.47440000   16.91900000     -0.108336   -0.75645800   -0.61124600
Se    2.80488000   19.40503000    9.57673000      0.196224   -0.08827700   -2.77591500
Se    0.72935000   18.91270000    0.79517000     -0.338626    0.37162900   -1.12856700
Se    9.35642000    0.33334000    7.19182000      0.435034    0.65278100    0.09027400
Se   12.15159000    4.24543000    1.51467000     -0.263665   -1.42014100    0.49897900
Se   11.23586000    2.96272000    8.98247000      0.102578   -0.13610800    0.50103900
Se    8.99773000    7.87303000    0.59387000     -0.457826   -0.02636300   -0.53657900
Se   11.52344000   13.23691000    7.84412000     -0.049748   -0.30070900    0.29346400
Se    9.64289000   14.98248000   19.77449000     -0.211992   -0.01154900   -0.78613200
Se   13.43187000   22.37466000   10.47940000      0.700280    0.62600100    0.81483000
Se   12.56303000   14.40920000   16.60324000     -0.675510    0.70664100   -0.46766500
Se   18.30941000    1.62118000    7.94283000     -0.896718    1.34812200    0.73681400
Se   18.47866000    5.63463000    1.46519000     -0.574126   -0.59611500   -0.81167200
Se   16.26292000    7.36700000    7.83552000     -0.143720   -0.16675200    0.36844200
Se   15.47380000    9.63593000   16.55437000      0.034619    0.08980400    0.88244700
Se   15.08380000   12.23317000    8.58387000     -1.531820    0.66454500    2.03806600
Se   16.40220000   12.09232000    0.21968000      0.329558    0.36449300   -0.12860700
Se   14.93595000   18.82222000    4.92903000      0.024412   -0.40877800   -0.03248800
Se   19.32355000   20.99570000   18.54842000      0.652488   -0.04084000   -0.49495200
Se   21.77108000    1.28125000    8.72383000      0.202819    0.43818700    0.21130800
Se    0.18406000    0.95524000   15.81177000     -1.231060   -0.08959100    0.59272800
Se   20.92080000    6.81330000    9.41528000      0.581362    0.22835400    0.11272900
Se   22.97228000    6.75521000   17.87483000      0.200340   -0.15418900   -0.27539000
Se   23.63427000   11.39988000    8.58530000     -0.057665   -0.11499400   -0.60855200
Se   21.42655000    8.38773000   19.01940000     -0.800759   -0.46112300    0.18813700
Se   21.46683000   18.46645000    8.75313000     -0.046938   -0.73671500   -0.61823700
Se   19.66787000   16.39059000   16.80008000      0.017177    0.57590800    0.92974000
Se    1.29892000   23.66949000    9.11352000     -0.150174   -0.94217800   -0.15312400
Se    2.42377000   23.53109000   13.20177000      0.508300   -1.47803900    0.27317800
Se    2.42404000    7.79361000    8.01749000     -0.504926   -0.03306900   -1.02905600
Se    1.84367000    8.17391000   17.35518000      0.582691    0.16995400    0.37488500
Se    1.00249000   15.21123000    7.73909000      0.477852    0.53837000   -0.74162300
Se    2.28667000   12.74373000   17.71168000     -0.301580   -0.50912300    0.10633800
Se    2.32101000   20.43184000    6.98024000      0.307600   -1.30161900    0.03386500
Se   23.28957000   19.10930000   16.53155000      0.521296   -0.17009000    0.42575100
Se    6.36848000   23.41100000    4.69253000      0.209493   -0.54614800    0.26675800
Se    6.38777000    1.45178000   17.64899000     -0.300635    0.37295100    0.15512900
Se   10.14029000    7.31754000    5.49706000      0.719470   -0.59773500    0.22968500
Se    5.66746000    8.54559000   16.06256000      0.525066   -0.44221400    0.48067400
Se    6.93714000   14.21107000    8.45448000      0.908018   -0.66521400   -0.68280000
Se    8.64194000   18.25725000   13.10789000     -0.655484   -0.15646000   -0.35978700
Se    7.88578000   17.08898000    3.35916000     -0.532492    0.01769100    0.08334900
Se    8.74956000   17.04409000   15.77762000      0.322987   -0.36171400    0.39850700
Se   14.21355000   21.89400000    5.48780000      0.515897    0.07818900   -0.18812600
Se   14.84763000   23.04162000   15.90466000     -0.461560    0.50321000    0.99811000
Se   12.80905000    8.84180000    4.81180000      0.024326   -0.09380100   -0.16407100
Se   10.49215000    7.72591000   13.65262000     -0.957656    0.39333700    0.01761100
Se   14.25258000   11.72249000    4.74927000      0.987051    0.09120700   -0.24149500
Se   14.72279000   15.41973000   13.69135000      0.477684   -0.28223100    0.04240200
Se   12.82616000   19.21107000    3.93559000     -0.518857   -0.99210000    0.21982200
Se   15.14858000   20.27282000   18.67485000      0.012235   -0.22698200    0.35632500
Se   18.07290000    1.87424000    4.45647000     -0.001239    0.16008600   -0.03333000
Se   19.50384000    1.19807000   18.83792000     -0.629897   -0.27312600   -1.16597200
Se   19.15428000    6.96411000    6.15739000      0.549778   -1.09438100   -0.31267800
Se   19.03940000    7.02789000   15.80618000      1.244830   -0.46216700    0.79651300
Se   20.34528000   12.06622000    5.44067000     -0.154171    0.27103800   -0.45903400
Se   17.79800000   13.88669000   12.93079000     -1.034890   -0.95302600   -0.25886200
Se   19.28801000   18.42850000    5.10994000      0.397296    0.01893000    1.03549100
Se   20.66482000   20.34282000   14.26464000      0.199714    1.41419900    1.69631800
Se    5.91402000    6.66035000    6.57920000     -0.905676    0.52199200   -0.38200600
Se    2.01748000    2.39395000   15.76445000      1.358743    0.86598500   -0.17881500
Se    3.77155000    9.34567000    4.12718000     -0.216637   -0.11990800   -0.00896000
Se    4.11048000   11.46778000   13.56327000     -0.219916   -0.14831500    0.30268500
Se    4.09454000   14.51782000    5.24152000     -0.664825    0.27118000    0.01833000
Se    2.56006000   16.89084000   17.86104000     -0.767680   -0.77860700    0.23505500
Se    1.59336000   22.45622000    6.27113000     -0.545880    0.64660700   -0.78954300
Se    2.53631000   19.46133000   11.75906000     -1.318872    0.59336600    1.90940800
Se   12.50879000    1.56791000    5.35349000      0.058116    0.19683600   -0.27005200
Se    8.88052000    4.67720000   16.43646000     -0.363911   -0.39285800    0.24286700
Se   11.78299000   10.83707000    7.31743000     -0.690673    0.46330700   -0.53122700
Se   10.68762000   11.85071000   16.55575000     -0.089697    0.36904000    0.63789800
Se   10.04900000   15.70414000   10.80823000     -0.113855    0.72525700   -0.63751100
Se   11.66818000   19.68821000   19.10506000      0.286728    0.66312900    0.46015200
Se   10.32343000   22.39388000    4.19995000      0.109748   -0.03696000   -0.70530200
Se    8.25628000   19.81479000   17.82166000     -0.141663    0.64588900    0.58728500
Se   13.71554000    4.62871000    5.36681000      0.286175    0.54003300   -0.48073900
Se   14.91091000    6.20440000   19.22925000      0.104870   -0.15828400   -0.67231500
Se   17.33110000    9.46850000    6.32024000     -0.156888    0.41206200   -0.39947100
Se   17.46439000    7.75651000   13.22532000      0.152595    0.24993800   -0.22639300
Se   17.39188000   13.43220000    5.96336000      0.142255   -0.44801600   -0.07711000
Se   12.57055000   18.71976000   15.18313000      0.261409    0.62267600    0.31316300
Se   16.07443000   23.60153000    4.53157000      0.553500   -0.00795000    0.65806100
Se   16.64085000    3.36478000   13.72220000      0.788035    0.17873200   -0.07030500
Se   21.50177000    3.81099000    7.34929000      1.387585   -1.23107100   -0.62148100
Se   22.20108000    4.70038000   14.68445000      0.936918    0.56577300   -1.34176200
Se   18.38907000   11.38385000    9.64003000      0.089347   -1.17059500   -0.38253400
Se   22.15842000   13.72866000   15.80394000     -0.052087    0.57939900   -0.28472600
Se   19.87645000   15.09362000    8.31407000      0.587967    0.71512400   -0.47391200
Se   23.00198000   16.40212000   15.99021000     -0.077154   -0.25010700   -0.92410800
Se   21.37030000   21.95370000    8.32283000     -0.077488    0.04731800    0.07746100
Se   22.46706000    0.00813000   19.58002000      0.124755    0.21085800   -0.49797300
Se    4.10900000    2.80701000    6.51956000     -0.209132    0.86372500    0.17064700
Se    5.93756000   23.54736000   15.81547000     -0.128072    0.01399600   -0.02600300
Se    3.34395000    5.23847000    3.59707000     -0.369018    0.50467500   -0.04835600
Se    4.41711000    8.42338000   11.59577000      0.459275   -0.16443600   -0.56817200
Se    1.20934000   11.22286000    2.62121000      0.075136   -0.24558600   -0.15824000
Se    4.40687000   14.78332000   15.63107000     -0.423350   -0.39292800   -0.60791100
Se    4.58865000   18.57398000    0.87580000      0.298339   -0.71387900    0.74321200
Se    3.80153000   18.14866000   13.11466000      0.911585   -0.91985900    0.79530500
Se    8.85945000    0.15351000    2.85897000      0.528838    0.41509300    0.18812600
Se   10.84480000    1.72281000   14.63099000     -0.316946   -0.27645000    0.45496400
Se   10.72956000   10.00545000    3.08019000      0.501273    0.48034200   -0.11233700
Se    8.75711000    8.83184000   17.12365000      0.135587    0.27409300   -0.78451200
Se    8.62322000   13.41861000    4.98013000     -0.151852   -0.09465200   -0.04995900
Se   11.58932000   10.82705000   14.27464000     -0.260776    0.61311000   -0.96166700
Se    9.41357000   19.56679000    1.68537000     -0.402869    0.99466000   -0.48616200
Se   10.26491000   22.26349000   15.73634000     -0.152248   -0.14873700   -0.70410800
Se   17.82610000    4.25426000    8.55312000      0.047859   -0.55368600    0.14556700
Se   14.99812000    1.64217000   16.86277000      0.299952   -0.46359600   -0.55134700
Se   16.68200000    6.98100000    3.79100000      0.130067   -0.03024900    0.74241400
Se   13.22984000    7.54127000   13.96882000      0.845694    0.35071000    0.10062400
Se   17.25443000   11.96805000    2.44621000      0.788680   -0.54643600   -0.27160300
Se   17.70130000   19.05671000   15.74748000      0.447697   -0.41205800   -0.94664800
Se   15.21109000   16.31056000    4.06027000     -0.321327    0.19459400    0.81630400
Se   16.88061000   20.51598000   14.12834000     -0.167103    0.17895300   -0.03907900
Se   21.98865000    1.67493000    4.95913000      0.869696    0.54261500   -0.01839000
Se   22.10358000    1.21989000   12.72475000      1.012789    0.19658000   -0.43010700
Se    0.05616000    8.13267000    5.52584000     -0.404433   -1.79161400    0.02050600
Se   21.14069000    7.63468000   12.52873000      0.363343    0.30721000    0.26178600
Se   23.49093000   16.09104000    4.73920000      0.546598    0.40571500    0.00842000
Se    0.37941000   12.55412000   15.17924000      0.302187   -0.05312900   -0.77836600
Se   22.36749000   19.63240000    4.06392000      0.165897    0.18457500    1.01665100
Se   21.41885000   21.27941000   11.09414000     -0.048804    0.02966900   -0.24358600
Se    2.84534000    4.82141000    7.23489000     -0.057098   -0.60316900   -0.03708600
Se    1.99252000    3.72723000   13.26919000      0.719362   -0.02249600    0.35246300
Se   22.73471000   11.51835000    4.80557000     -0.574950    0.31014600   -0.03150100
Se    0.99718000    9.09577000   14.03515000     -2.284296    0.11543400   -0.36075700
Se    1.62355000   14.59336000    1.61764000      0.055792   -0.08733000    0.47241200
Se    0.91484000   16.75175000   14.01818000     -0.637841   -0.98311600    0.47152700
Se    2.78265000   21.90698000    2.02398000      0.018148   -0.23900800   -1.10848800
Se    5.47821000   18.02213000   17.02808000     -1.172310    2.22433000   -0.98225600
Se   10.62732000    3.95678000    4.52541000     -0.223214    0.33877000   -0.61845200
Se    7.39168000    2.67870000   13.01268000     -0.334365    0.05177000   -0.04523900
Se    7.10396000    9.69981000    3.50434000     -0.079944    0.21677700    0.28503600
Se    8.00594000   10.90554000   13.50539000      0.315853   -0.40091700   -0.76147700
Se    7.65874000   15.54465000    1.36536000      0.343137    0.44326400    0.73234000
Se    9.17123000   15.27356000   14.22670000     -0.808733   -0.24098400    0.32318900
Se    7.60253000   21.86259000    9.02332000     -0.496862    0.38830100   -0.36247700
Se    6.23774000   20.93613000   14.47826000     -0.055539    0.06055800    0.76289700
Se   15.56666000    0.88962000    2.47181000     -0.510806    0.83358400   -0.64550600
Se   10.46368000    5.33911000   13.90200000      0.081461   -0.02209800   -0.39648000
Se   14.20445000    9.61891000    0.38394000     -0.675453    1.34174700    0.78799400
Se   15.15940000   10.86970000   13.32558000      0.452427   -0.32622500   -0.42433700
Se   10.18964000   16.24691000    6.96449000     -0.006973    0.88081200   -0.51824500
Se   13.22978000   17.01031000   11.69466000     -0.049118    0.16082000   -0.27389300
Se   14.53594000   21.34559000    2.87164000     -0.380695   -0.39561600   -0.87040300
Se   15.75828000   23.26914000   13.79658000     -0.065224   -0.03802600   -0.90272200
Se   18.92450000    5.63668000   18.97224000     -0.076908    1.08241200    0.46958600
Se   14.98641000    5.39983000    8.50080000     -0.874133    0.77486500    0.41264500
Se   20.65481000    7.74430000    3.18840000     -0.339360   -0.02320800    0.06768100
Se    0.04432000   12.63220000   12.49869000      0.874970    0.69818300    0.39949700
Se   20.16575000   16.12131000    4.05376000     -0.475739    0.05628500    1.45702000
Se   18.74655000   17.37098000   13.56599000      0.300341   -0.32923800    0.52814800
Se   19.48910000   22.21410000    4.58906000      0.173744   -0.10521500    0.03256200
Se   18.42519000    0.48284000   13.68195000      1.194857    0.06412000   -0.21047600
