384
23.69824000 23.69824000 19.89960000
Ge    5.63898000    6.21362000   11.74849000     -0.027083   -0.03530600   -0.02306600
Ge    5.82982000    5.63145000    3.23010000      0.441289   -0.98223600    0.18299100
Ge    1.85564000   12.17589000    7.07533000      0.426884    0.30035000   -0.11886600
Ge    9.17034000   14.43565000   17.13918000      0.322262   -0.13010200   -0.53519400
Ge    5.05040000   15.21684000   10.32299000     -0.202975   -0.04050600    0.44852000
Ge    9.65773000   18.17988000   19.31690000      0.111439    0.39582500   -0.23384800
Ge    6.59524000   23.46507000   11.18260000     -0.036946   -0.37749900   -0.77521500
Ge    5.72927000    2.34861000    0.73934000     -0.077293   -0.26929600   -0.13784600
Ge    9.71278000    5.60234000   11.30948000     -1.220032   -0.36778600   -1.27248500
Ge   11.03846000    5.57620000   19.65688000      0.218748    0.07377900   -0.10139400
Ge   11.20332000   10.01006000   10.85217000      0.149410   -0.79040400   -0.24631200
Ge   13.47234000   11.62525000   18.94650000     -0.854352    1.75233000   -0.64989100
Ge   10.48181000   17.67673000    8.91515000      0.591477   -0.29784800    1.72647300
Ge   13.44265000   16.11108000    0.46957000      1.184535   -0.19365700   -0.75683400
Ge   11.22661000    0.05587000    9.30059000     -0.015531    0.43238700   -0.10654600
Ge   16.14622000   22.98413000   18.86302000     -0.913285   -0.01526000    0.15171300
Ge   18.81218000    4.93708000   11.17755000      0.462647   -0.03748800    0.44291100
Ge   19.59862000    9.01981000   17.22925000      0.311763    0.39735900   -0.15397700
Ge   20.38150000   12.67090000    9.94170000     -0.771250    0.23238300   -1.07159600
Ge   18.17605000   11.71027000   18.30259000      0.476017    0.31345000    0.27659100
Ge   15.06655000   18.90168000    9.00086000     -0.426053   -0.31598900    0.04069100
Ge   19.10404000   16.31482000   19.22061000     -0.534978   -0.64290000   -0.38928100
Ge   19.87750000    1.53675000   12.06044000      0.153489    0.72574600    0.82624900
Ge   19.72445000    3.57495000    2.56831000      0.233166    0.43172900   -0.19494200
Ge    0.02268000    5.76459000    9.13556000     -0.516718    0.41498000    0.10481000
Ge    1.92967000    3.51985000    4.87294000     -0.157484   -0.47640400   -0.06208900
Ge    2.07841000   10.16087000    9.39215000      0.171950   -0.50433900    0.18125700
Ge    0.04169000    9.60552000   18.95787000      0.406587    0.60108900    0.39440200
Ge   22.28746000   16.02903000    8.95167000     -0.344970   -0.08285700    0.71618000
Ge    1.15239000   14.62876000   19.06062000      0.846478    0.14852400    0.62363900
Ge   19.38301000    0.63731000    9.77088000     -0.199108   -1.00667100   -0.53294300
Ge    0.99125000   21.37961000   19.67027000      0.322907   -0.57989500    0.69751000
Ge    4.71090000    7.85619000    8.69272000      0.320848   -0.64136700    0.27289100
Ge    2.58419000    7.08378000   19.76273000     -0.750193   -0.99037600   -0.48593800
Ge    1.69196000    9.87056000    5.33594000     -0.105537    1.11069200    0.56207400
Ge    4.20074000   12.34542000   16.02970000      0.686965    0.67155200   -0.21041700
Ge    5.90417000   18.82250000    3.57957000     -0.459642   -1.21041000   -0.43222800
Ge    0.33651000   17.56670000   18.36088000      0.255229    0.28136800    2.15188600
Ge    5.83180000   19.84650000    8.76157000     -0.205460    0.21337000    0.07099100
Ge    3.66093000   23.14079000   17.84679000      0.280238   -0.06863800   -0.05046500
Ge   10.17314000    2.57875000    6.69891000      0.048487   -0.20404100    0.96763200
Ge    6.96749000    9.19165000   18.81791000      0.150222   -1.03563100    0.21785700
Ge    6.33126000   12.60339000    6.44309000     -0.166270    0.14211300    0.23374200
Ge    8.57041000   10.00207000    1.72816000      1.353114   -0.01258000   -0.40441300
Ge    7.82101000   18.46164000    6.52943000      0.217780   -0.14376300    0.97394000
Ge    4.33730000   19.84280000   18.80476000      1.296709    0.46845300   -0.67495300
Ge   11.71254000   22.99468000    6.23739000     -0.633343   -0.21185500    0.21907300
Ge   10.32884000    1.13210000   17.38317000     -0.136344    0.63417300    0.05338100
Ge   12.67165000    6.84356000    5.89060000     -0.498503   -0.92369400    0.97663800
Ge   14.01198000    8.46668000   18.39181000      0.857248   -0.35931000   -0.26067100
Ge   16.29798000   11.46467000    6.96939000     -0.479885    0.86871600   -0.45306000
Ge   16.78259000   15.33122000   15.60710000     -0.347819   -0.10549500   -0.36187700
Ge   12.50505000   16.87595000    4.57532000      0.061678   -0.17204400    0.12554100
Ge   15.12245000   18.84546000   16.66262000     -0.835483   -0.74770500   -0.80959400
Ge   15.34286000    0.35935000   10.10520000      0.026305   -0.35530400   -0.59457100
Ge   16.61448000    4.49983000   18.20903000     -0.380456   -0.30404200   -0.13683300
Ge   19.74989000    5.51207000    7.82439000      1.726135   -1.73988100    1.98469400
Ge   21.17889000    5.70504000   16.58761000     -1.201431   -1.01252800   -1.94160400
Ge   19.74144000    8.54881000    7.86451000     -0.132791    0.62657400    0.41264100
Ge   22.10547000   12.72912000   18.41592000     -0.525151    0.79918500   -0.09986500
Ge   19.40986000   17.52675000    7.55068000      1.246104   -0.44371100   -0.19443500
Ge   20.92926000   18.86852000   16.72003000     -1.222407    0.28529200   -0.32816100
Ge   19.73311000    0.79557000    5.83202000      0.211169   -0.02586700    0.13837400
Ge   20.28489000   21.41106000    1.09188000     -0.926061   -0.21414900   -0.04505800
Ge    6.15073000    3.21863000    9.00881000      0.017260   -0.77682800    0.71561000
Ge    4.27235000    3.30964000   17.24710000     -0.040732   -1.82647100    0.43127100
Ge    3.46728000    6.89232000    5.60198000      0.624477   -0.44367000    0.11377100
Ge    3.10699000    9.10334000   13.62379000     -0.731884    0.89959500   -0.80356000
Ge    1.56833000   17.30138000    6.14773000      0.455712    0.37731600    0.32694800
Ge    1.91067000   15.16121000   15.99209000      0.351045    0.07936800   -0.55895800
Ge    0.22232000   20.00900000    9.41384000     -0.360930   -1.01497900   -0.24864100
Ge    2.88361000   20.87993000   13.84240000      0.539120    0.94734500    0.35752600
Ge    9.21093000    2.89110000    2.61316000     -1.000557   -0.24054700   -0.13356900
Ge    8.31656000    2.08964000   15.39077000      0.096514    0.55058600    0.05337200
Ge    9.07533000   10.88614000    5.23229000      0.008114   -0.22895800   -0.16498100
Ge    7.43473000   10.21252000   15.60467000      0.369066    1.97348400    0.74420400
Ge    9.14764000   14.07158000    7.34610000      0.153445   -0.38451500   -0.40675900
Ge   14.31267000   11.87397000   15.52965000     -0.242844    0.42591600    1.19593500
Ge    7.77859000   21.22827000    5.20597000     -0.002328    1.03626900   -0.34445400
Ge    8.75612000   20.27350000   15.43026000     -0.193004   -0.53327600   -0.16866700
Ge   14.81621000    1.93478000    6.41589000      0.297031   -0.17608700   -0.11472100
Ge   12.75911000    2.53258000   15.86272000     -0.345228    0.20744700    0.78042600
Ge   14.81802000    9.62408000    4.08340000      2.699132   -0.35623700   -0.83044300
Ge   15.57901000    8.45607000   14.38794000     -0.440138    0.47571500    0.83788100
Ge   16.10598000   13.53432000    3.89522000     -1.529198    0.41576200   -0.24026800
Ge   13.22292000   16.47360000   15.25947000      0.309794   -1.22065700   -0.24763500
Ge   13.90734000   19.30372000    0.66801000     -0.389130    0.04596400    0.49952900
Ge    9.78724000   21.27812000   19.78377000     -0.086214    1.35310100   -1.62429200
Ge   22.82508000    4.28888000    4.45839000     -0.001607   -0.60538900   -0.23597400
Ge   21.28089000    2.56916000   15.13834000     -0.210475   -0.29113200    0.34893200
Ge   22.40079000    9.85546000    6.59676000     -0.834731   -0.38235200    1.06478300
Ge   20.24338000    9.58851000   13.22902000     -0.432999    1.78814400    0.52662300
Ge   21.62587000   16.82693000    2.35182000      1.949361   -0.56263300    0.38533400
Ge   19.73043000   14.77766000   13.89104000     -0.223310    0.48677700   -0.13553700
Ge   20.90492000   20.44899000    6.17832000     -0.468081   -0.55459100   -1.26791100
Ge   20.70030000   22.79328000   18.03184000      0.314205    1.38551300   -0.52004900
Ge    6.07973000    4.26127000    5.78884000     -0.099501    0.76410300   -0.53572900
Ge    4.14932000    0.89255000   14.17867000      0.167489   -0.15029700    1.05505300
Ge    5.25486000   11.36495000    3.31980000     -0.095603    0.49160500   -0.12262900
Ge    7.95873000    8.28995000   13.17497000     -0.364753    0.26453800    0.24623200
Ge    5.39391000   16.12155000    0.33411000      0.517501   -0.84199600   -0.72092500
Ge    2.81033000   13.41174000   11.90516000     -0.889970   -0.29911600    0.70319300
Ge    4.70239000   22.62686000    6.47960000      0.128999    0.36243300   -0.37717900
Ge    7.03177000   20.50305000   12.39013000      0.282607   -0.63337400   -0.43943100
Ge   15.63501000    4.76989000    3.33146000     -0.159343    0.22819100    0.04688800
Ge   13.45287000   23.30206000   13.02535000     -0.355628    0.34826700   -0.76583700
Ge   11.53650000    9.58871000    0.71508000     -0.545836   -0.41763500   -0.88563600
Ge   13.33469000    9.66633000   12.66169000     -0.709484    0.32976800   -0.57276100
Ge   11.08315000   13.69481000    1.87594000     -0.433548   -0.13693200   -0.22793100
Ge    7.75102000   16.90857000   11.03602000     -0.107837   -0.36391000    0.30904400
Ge   13.18553000   23.42738000    2.62796000      0.193796    0.43190700   -0.94994200
Ge   10.98975000   22.08082000   13.04226000      0.744088   -0.64150600    1.06324700
Ge   23.58301000    2.21815000   18.02958000     -0.356783   -0.24283100    0.71813500
Ge   12.72247000    5.67966000   12.35578000     -0.403616    0.08649800    0.43230100
Ge   17.97369000    8.79818000   19.66637000     -0.502979   -0.43605400   -0.33958800
Ge   13.12861000    7.06815000    8.51303000     -0.705272   -0.68307000   -0.49298100
Ge   20.47365000   12.45156000    2.91779000     -0.262115    0.70145300   -0.06914200
Ge   16.62761000   15.80239000    8.84307000      0.126708   -0.05746700   -0.60881800
Ge   17.26436000   21.50739000    3.05733000     -0.388621   -0.28968900    0.80596700
Ge   18.86674000   21.53959000   12.89193000     -0.314755    0.29244500   -0.16937900
Ge   23.68126000    1.09798000    3.29988000      1.252751   -0.03876700   -0.97369200
Ge   23.01728000    2.38899000   10.58109000      0.697648    0.56029800    1.81716600
Ge   22.81073000    9.33337000    3.20668000      0.639404   -0.38653800   -0.35470700
Ge   23.13730000    9.12214000   11.95291000      0.262726    0.02766100    0.50571000
Ge    1.65271000   14.26591000    5.12405000     -0.241897   -0.96671100    0.46343500
Ge   23.22711000   15.30996000   11.68884000      0.592168    0.29859900    0.35747300
Ge    0.44041000   21.23907000    4.20672000      0.716828   -0.56723000    1.10784300
Ge   21.02779000   18.46128000   12.98916000     -0.566682   -0.38983700   -0.81907400
Se    1.99508000    0.59938000    0.01654000      0.465280    0.33027400   -0.39518900
Se    1.72445000    1.78609000   10.44856000     -0.465131    0.10978700   -0.22097300
Se    0.44306000    7.95118000    0.83788000      0.023331   -0.06804900    0.55132000
Se    1.00694000    7.90871000   10.30565000     -0.455684   -0.22814800    0.33587700
Se   22.90934000   11.28903000    1.22109000     -0.576742    0.40567100   -0.51176700
Se    2.88675000   14.16492000    8.86054000     -0.736404   -0.21407300    0.26501900
Se    2.14402000   19.75265000    3.24577000      0.187870    1.00286600   -0.20221300
Se   23.50961000   18.76673000   11.87469000      0.375711    0.18015000   -0.25964400
Se    5.84668000    2.96324000    3.20705000      0.388718    0.08809000   -0.24388000
Se    4.56882000    3.05993000   13.37043000      0.762243    0.50300000   -0.58989300
Se    8.72356000    5.40326000    3.60312000      0.699135   -0.63624000    0.10692700
Se    7.59633000    9.14719000   10.95532000      0.537106   -0.41901000   -1.16573500
Se    7.65818000   11.35329000   19.82281000      0.319054    1.14007100    0.12002900
Se    6.32690000   15.39502000   12.46312000      0.400996    0.32013400   -0.63239100
Se    7.20346000   20.71619000    2.74341000      0.859510    0.43105900   -0.56790200
Se    9.46647000   20.33753000   11.71174000     -0.185120    0.03457800    1.02791400
Se   13.42911000    0.09751000   19.87318000      0.550721   -0.35092400   -0.60003400
Se   13.52857000    2.16751000   11.97800000     -0.402624   -0.28988200   -0.03365900
Se   11.96416000    7.82209000   17.75421000     -1.276151   -0.04609400   -0.25015800
Se    9.85578000    9.54732000    8.07738000      0.541043    0.22319800    0.50600900
Se   13.33811000   13.41096000    0.91890000      0.440893   -0.07115500   -0.01126000
Se   13.74017000    9.28016000    9.17510000     -0.365900   -0.20753700    0.45192100
Se   15.71627000   16.35652000    1.71941000     -0.402776    0.27993600   -0.12519600
Se   12.27328000   18.86103000   10.61391000      0.059124   -0.83009100   -0.05264000
Se   18.23420000    4.46365000    4.41582000     -0.550302   -0.43778900    0.31843800
Se   13.71717000    3.75480000   13.75898000      0.345019    0.23921300   -0.12223500
Se   14.82255000    5.67857000   16.62885000      1.020934   -0.05218500    0.60187300
Se   18.93988000    4.56463000   13.94682000     -0.361480   -1.07478000   -0.05897800
Se   19.94773000    9.58503000    0.77766000     -0.291748    0.89720200    0.78790300
Se   17.28859000   18.53196000    7.68436000     -0.764712   -0.04382500    0.11676300
Se   20.50538000   18.05177000    0.68654000      0.321776    0.33763600   -1.23010700
Se   19.62846000   19.58890000   10.97172000      0.188079    0.33530100    0.62390000
Se    2.34400000    1.24202000    3.40160000      0.316845    0.03149500    1.09017500
Se    2.66464000    5.77170000   12.36774000      0.033729   -0.16949500    0.61955700
Se    5.21402000   11.82878000    0.57840000     -0.054779   -0.14791200    0.43968600
Se    4.28269000   12.19889000   10.45957000      0.537519   -0.12336100   -0.54574900
Se    3.95099000   14.05507000    1.24415000      0.495276    0.47607200   -0.20936000
Se    2.94645000   16.02313000   12.01626000     -0.157721   -0.41660300   -0.90571800
Se    5.52850000   22.02701000   19.10719000     -0.258759   -0.51525400    0.09602700
Se    4.97200000   21.03792000   11.16944000      0.646712    0.24770100    0.08435400
Se   13.00175000    6.52730000    1.50173000     -0.371650   -0.62530700    0.28974300
Se    8.88246000    2.94891000   10.71899000     -0.134481    0.62362000    0.17418100
Se   10.55580000   12.22543000   18.92205000      0.758085   -0.72538000   -0.53715900
Se   11.20838000   12.13258000   12.16098000     -0.165175    0.61663800   -1.33251600
Se   11.78946000   16.08124000    2.17947000     -0.664628    0.75192300    1.21512400
Se   11.49429000   14.80677000   13.70462000      0.786750    0.38617200    0.18591800
Se   11.90106000   22.94394000   17.58016000      0.371370    0.21340000    0.89953600
Se    9.58422000   23.07826000   11.44045000     -0.319370    1.07647800   -0.94997500
Se   11.80271000    3.25849000   18.07248000      0.226997   -0.20408500   -0.42550400
Se   17.79466000    7.99296000    9.66353000     -0.677768   -0.43986500   -0.76935300
Se   16.39656000    8.71762000    2.12811000     -0.226097   -0.23798700   -0.01190900
Se   17.46846000   13.41035000   10.47390000      0.350426    0.37173000    0.58816900
Se   19.01483000   14.94125000    2.32300000     -0.137046   -0.49799300    0.40554300
Se   14.58370000   14.99390000    7.55576000     -0.399399    0.74893400    0.44353300
Se   17.86862000   22.60425000    1.03211000      0.308650    0.56526900   -0.37055800
Se   17.65460000   22.27717000   10.76994000     -0.269033    0.34353000   -0.07921400
Se   23.61407000    3.22064000    2.27815000     -0.172979    1.09131100   -0.92667700
Se    0.04843000    4.75160000   11.48699000     -0.889157   -0.40669600   -0.80603700
Se   21.53249000    5.81341000    2.53961000      0.923147   -1.13823600    0.40293100
Se   21.14758000   11.76648000   11.91208000      0.362019   -1.01592600    1.61597500
Se   22.50374000   14.48548000    2.06200000     -0.370140   -0.05584700    0.03713400
Se   20.81416000   15.68745000   11.79084000     -0.118209   -0.37076500    0.21226000
Se   23.17289000   22.59923000    2.61088000     -1.169063    0.19504600   -1.16335200
Se   21.62026000   23.09911000   15.86556000     -0.377432   -0.11236700    0.02899900
Se    4.62413000    5.06457000    9.74061000     -0.421233    0.33823900   -0.15576700
Se    4.89540000    5.33169000   18.19519000      0.122303    1.18059800    0.45995600
Se    4.32646000   11.26339000    7.81708000     -0.335154   -0.37120100    0.03727100
Se    3.50535000    7.45461000   15.25581000      0.620586   -0.11580400    0.36728400
Se    5.40271000   20.16090000    6.05548000      0.323740   -0.44004800    0.34591600
Se   22.57555000   15.64275000   19.13311000     -0.365460   -0.19168600   -0.05150300
Se    0.69792000   21.85210000   10.86786000      0.105497    1.34780000    0.48929500
Se    2.81114000   20.73518000   17.13351000     -0.442131    0.07133700    0.12337900
Se    7.79923000    4.23838000    7.57603000      1.162385   -0.21624500   -0.60797200
Se    6.25833000    4.81157000    0.33368000     -1.213865    0.19156300    0.62307200
Se    7.45448000   10.36402000    7.11261000      0.095116    0.23477100    0.29378900
Se    3.22016000   10.20441000   18.76169000      0.149557   -0.19080400    0.04697700
Se    6.45771000   17.19249000    8.48447000      0.037290    0.87457400    0.31694500
Se    6.50782000   15.95820000   17.85778000     -1.000486    1.26932900    0.57847200
Se    9.26218000   19.74853000    8.54203000     -0.251908   -0.51026800   -1.02407500
Se    8.74752000    2.13135000    0.37060000      0.201436   -0.28039600   -0.21999100
Se   13.76861000    2.06102000    8.59540000     -0.161906    0.05932700    0.96161400
Se    8.16411000    4.89088000   18.63926000      1.406882   -0.11174000    0.07199600
Se   10.54475000    6.09290000    8.93125000      1.152071    0.62552400   -0.11853600
Se   16.67159000   12.86133000   16.68484000     -0.659608    0.38349400   -0.70773900
Se   13.52383000   17.33950000    7.47003000      0.348936   -0.53077300    0.28773900
Se   14.90141000   16.23569000   17.06012000      0.717758    0.76776100    1.20556500
Se   15.91083000   23.04053000    7.57092000     -0.504258    0.09632000   -0.11843800
Se   17.92207000    1.48899000   17.08790000     -1.128606    0.22867000   -0.62351700
Se   16.75976000    3.70889000   11.40849000     -0.648316   -0.30628600   -0.60434000
Se   21.03676000    3.57968000   17.77627000      0.149031   -0.53938200   -0.11690000
Se   17.98650000    9.81895000   12.19421000      0.585726   -1.12057000   -0.08782900
Se   20.95999000   10.48484000   15.61360000     -0.705881   -0.61769700   -0.22144400
Se   15.79333000   17.17477000   10.69131000     -0.742781    0.12489400    0.49076300
Se   19.78069000   13.71025000   19.03181000      0.144782   -0.83958400   -0.03344500
Se   19.02897000   22.26236000    7.76489000     -0.278585    0.47595200    0.66560500
Se   18.85242000   19.34107000    1.81840000     -0.261241    0.36885300    0.38959000
Se    5.86752000    0.24569000    8.68823000      0.701153   -0.40041200    0.50118300
Se    3.09847000    2.75611000   19.78054000      0.302761   -0.15484700   -0.52938100
Se    7.44023000    6.96517000    9.67480000      0.083279    0.83079900    1.21081200
Se    4.49899000    8.50676000    0.08892000      0.533113    0.48220300    0.32981500
Se    4.13827000   16.79401000    5.87891000     -0.277495   -0.36703600   -0.19279600
Se    6.91315000   12.42664000   16.95516000     -0.537633   -0.76642500   -0.63189100
Se    2.73855000   19.35873000    9.30309000      0.084376    0.03388300   -0.73643700
Se    0.73538000   18.92173000    0.65545000     -0.341878    0.03278300   -0.79888200
Se    9.24401000    0.43435000    7.08986000      0.249786   -0.02222800    0.26348700
Se   12.26996000    4.19119000    1.45222000      0.044283    0.49414400   -0.00448600
Se   11.29306000    2.95333000    9.06465000     -0.268746   -0.43260000   -0.04127800
Se    8.83690000    7.94244000    0.65686000     -0.583875   -0.35691600   -0.89484700
Se   11.45201000   13.17363000    7.82825000     -0.397770   -0.04083200    0.30491000
Se    9.62417000   14.93900000   19.70131000     -0.150772   -0.35867100    0.12709500
Se   13.47009000   22.36216000   10.53885000      0.234919    0.54026200    0.66987700
Se   12.38367000   14.60700000   16.54841000     -0.857950   -0.15541100   -0.15696500
Se   18.16575000    1.92380000    7.99028000     -0.135016    0.19583600    0.55567800
Se   18.53422000    5.47329000    1.35912000     -1.268140   -0.17740000   -0.24222300
Se   16.17436000    7.38149000    7.76724000      0.379186   -0.17588000    0.79171800
Se   15.36592000    9.71826000   16.68031000      0.259003   -0.35271200    0.47211200
Se   15.04707000   12.36153000    8.66702000     -0.388770    0.07013200   -0.07694100
Se   16.34047000   12.03718000    0.15299000      0.706294    0.53822000    0.24526300
Se   14.95883000   18.69136000    4.87744000     -0.751595    0.41309800   -0.67847800
Se   19.44928000   20.86757000   18.47778000      0.351095   -0.41570300    0.03367100
Se   21.82462000    1.52016000    8.67078000     -0.430486    0.34929100   -0.57485400
Se    0.25745000    0.98337000   15.91396000     -0.496589   -0.14675000   -0.13974600
Se   20.92457000    6.80800000    9.50918000      0.502178   -0.20554200   -0.29857800
Se   22.74939000    6.78847000   17.73864000      2.071869    0.36337500    0.27412200
Se   23.62102000   11.27136000    8.52786000      0.351083   -0.05433500   -0.40365400
Se   21.48144000    8.46114000   19.00109000     -0.938909   -0.50288200   -0.22603700
Se   21.53626000   18.34767000    8.81983000     -0.571779    0.07240800   -0.90399500
Se   19.77093000   16.31408000   16.82863000      0.158077    0.67087100    0.63540400
Se    1.20208000   23.61810000    9.15837000      0.082481   -0.50390400    0.27162800
Se    2.42392000   23.47500000   13.07235000      0.144841   -1.21478700    0.00977000
Se    2.34827000    7.82593000    7.73903000      0.141732    0.36935800    0.19451800
Se    1.90779000    8.26300000   17.43313000      0.205984    0.41544300    0.39298400
Se    1.03549000   15.42511000    7.85925000      0.322652    0.02680600   -0.77101700
Se    2.05288000   12.69230000   17.66178000     -0.117657   -0.03415200    0.24110500
Se    2.41663000   20.46444000    7.07860000     -0.002749   -0.40229900   -0.96127500
Se   23.40740000   18.97796000   16.67019000     -0.046569    1.34390600   -0.89482600
Se    6.25676000   23.39234000    4.52183000      0.153981   -0.83077500    0.70456200
Se    6.40327000    1.41607000   17.66623000     -0.505277    0.48434100   -0.32057700
Se   10.28453000    7.33608000    5.49530000      0.062545   -0.75679600    0.28916200
Se    5.77627000    8.61249000   15.95769000     -0.636801   -1.41049400    0.54922400
Se    7.03843000   14.16543000    8.50355000      0.138543   -0.84006000   -0.49976100
Se    8.56947000   18.17250000   13.04287000     -0.531804    1.02450100   -0.57803700
Se    7.80868000   16.85783000    3.26833000     -0.238376    0.51316700    0.63144000
Se    8.85203000   17.02371000   15.70556000      0.304602    0.05161200    0.55812400
Se   14.22227000   21.95792000    5.58486000      0.756137    0.07369700    0.06382000
Se   14.85589000   23.02629000   16.03825000      0.013513    1.01546200    0.09746000
Se   12.83479000    8.95910000    4.87896000     -1.491101   -0.38226600    0.31349100
Se   10.44455000    7.72213000   13.55874000     -0.046384    0.38884600   -0.16195400
Se   14.26785000   11.74222000    4.82449000      0.319384    1.62071600    0.23467900
Se   14.75299000   15.42260000   13.70479000      0.405424   -0.22661800    0.36224400
Se   12.67022000   19.30087000    3.84006000      0.606117   -0.92561000    0.79466500
Se   15.22086000   20.15669000   18.65452000      0.400755    0.81460400    0.65210100
Se   17.91477000    1.98138000    4.47372000      0.376012   -0.11845500   -0.38061800
Se   19.35751000    1.23181000   18.80552000      0.759278   -0.62656600    0.30964100
Se   19.18488000    6.77152000    6.13724000     -0.165155    1.61874900   -2.06125600
Se   19.11841000    7.00144000   15.86237000      0.879538   -0.62926500    0.51409200
Se   20.35511000   12.02823000    5.49809000     -0.739316    0.48474900   -0.43411400
Se   17.60910000   13.72759000   12.87070000      0.140809   -0.23490400   -0.30725400
Se   19.36463000   18.41578000    5.08100000      0.228780    0.00159900    0.99845800
Se   20.65556000   20.47728000   14.28715000      0.637230    0.33687500    0.95375700
Se    5.89551000    6.75798000    6.71205000     -0.874893    0.02876700   -1.03866500
Se    2.21020000    2.52026000   15.71262000      0.109750   -0.10662000   -0.01792100
Se    3.64414000    9.49319000    4.11203000      0.746480   -0.81896000   -0.69441100
Se    4.18579000   11.50080000   13.47110000     -0.399272   -0.17479400    0.71846500
Se    4.13384000   14.44299000    5.26808000      0.076199    0.58505600   -0.04169700
Se    2.54562000   16.82452000   17.94357000      0.242156   -0.90854500    0.10042500
Se    1.61393000   22.55917000    6.25187000     -0.385790   -0.21981400   -0.74530800
Se    2.53609000   19.45948000   11.73823000     -0.327910   -0.45062400    0.88870900
Se   12.58353000    1.40882000    5.36672000     -0.520484    0.53281700   -0.39547700
Se    8.82563000    4.58758000   16.45173000     -0.072489   -0.32949500   -1.02095100
Se   11.79215000   10.82493000    7.34212000     -1.092536    0.31693300   -0.30591800
Se   10.70553000   11.78779000   16.42845000     -0.179036    0.62164500    0.94033300
Se    9.86975000   15.82412000   10.82424000      0.469148    0.35777600   -1.20525900
Se   11.72558000   19.82239000   19.11839000     -0.072745   -0.42616000    0.19981100
Se   10.36454000   22.40158000    4.13997000     -0.208255   -0.01321400   -0.63492000
Se    8.24648000   19.81587000   17.78319000      0.114050    0.19865800    0.92177000
Se   13.56506000    4.59267000    5.29042000      0.632955    0.37155300   -0.60397700
Se   14.95159000    6.27187000   19.16458000     -0.544748   -0.27073600   -0.83779800
Se   17.39385000    9.57220000    6.42419000      0.030203   -0.64210000   -0.66031800
Se   17.42141000    7.46564000   13.38466000      0.247995    0.64916100   -0.59769500
Se   17.41010000   13.28616000    5.86619000      1.112364    0.22245800    0.67431700
Se   12.67390000   18.67997000   15.21085000      0.193550    0.79376500    0.32790800
Se   16.12640000   23.56426000    4.54046000     -0.004327    0.14586000   -0.36818500
Se   16.72024000    3.46040000   13.71591000      1.317704    0.60713600    0.84793100
Se   21.54571000    3.88457000    7.43536000      0.218129   -0.34820300   -0.21256800
Se   22.26995000    4.70200000   14.46981000     -0.195499    0.81365200    0.49327500
Se   18.27284000   11.20658000    9.74295000      0.043030    0.00057400    0.28984300
Se   22.11987000   13.67898000   15.81938000     -1.175083    1.17986300    0.53209200
Se   19.98000000   15.22930000    8.40807000     -0.461790    0.23531200   -0.89879900
Se   22.95403000   16.31412000   16.01455000      0.032362   -0.31265400   -1.25589900
Se   21.30507000   22.08502000    8.36561000      0.330664    0.10236000    0.46355900
Se   22.33877000    0.09300000   19.46273000      0.385288    0.16898900    0.03856400
Se    4.09180000    2.79339000    6.46367000     -0.158073    0.41558700    0.67745400
Se    5.93767000   23.47480000   15.89925000     -0.724187    0.41844500   -0.35260100
Se    3.36256000    5.05397000    3.61847000     -0.170816    0.89436000   -0.44375600
Se    4.38850000    8.49344000   11.51036000     -0.398913   -0.02668900    0.24823600
Se    1.05966000   11.24368000    2.57090000      1.066793   -0.14199900    0.53173400
Se    4.36902000   14.80713000   15.49404000     -0.374930   -0.75344300   -0.17460300
Se    4.59829000   18.33665000    0.78653000     -0.103175    0.08839000    1.23002200
Se    3.82062000   17.94627000   13.11115000      0.508698    0.32528000    0.46915500
Se    8.74249000    0.20781000    2.78692000      0.674861    0.64146400    0.35255500
Se   10.78401000    1.73882000   14.59428000     -0.011513   -0.08287800    0.19671800
Se   10.72850000    9.84627000    3.02759000     -0.170266    0.68143600   -0.36717400
Se    8.69405000    8.78576000   17.16033000      0.570078    0.14730600   -0.87130100
Se    8.58987000   13.38303000    4.95882000     -0.084481    0.16137600    0.34919400
Se   11.52137000   10.84565000   14.04784000      0.126390   -0.67736100    0.58748800
Se    9.41300000   19.74230000    1.59518000     -0.482851   -1.27654400    1.43491500
Se   10.14406000   22.27094000   15.53996000      0.141371    0.03458900   -0.22902400
Se   17.85798000    4.28844000    8.62285000     -0.606398   -0.37693800    0.05233300
Se   15.05630000    1.72250000   16.82693000     -0.000213   -0.93923400   -0.38209300
Se   16.69366000    7.03456000    3.78905000      0.184083    0.08977800    0.49074800
Se   13.25778000    7.68069000   14.16138000      0.245033   -0.66836700    0.15089200
Se   17.26787000   11.98590000    2.47007000      0.561538   -0.61790900   -0.90774900
Se   17.62064000   18.98956000   15.70928000      1.475148   -1.53326600    0.50484700
Se   15.21607000   16.35442000    4.05496000     -0.038235   -0.11828700    0.04605000
Se   16.96910000   20.41477000   14.17347000     -1.375620    1.29797800   -1.46762500
Se   22.10736000    1.67355000    4.80888000     -0.832573    0.83103900    1.61290800
Se   22.21021000    1.13606000   12.82587000     -0.135744    0.46827600   -1.15236100
Se    0.09235000    8.03152000    5.59800000     -0.066660   -0.45074200   -0.59202000
Se   21.12209000    7.58808000   12.59605000      0.798086   -0.49726000   -0.07686600
Se    0.08597000   16.00477000    4.64252000     -0.079525    0.69922200   -0.40383900
Se    0.29905000   12.64558000   15.24038000      1.720543   -0.85132500   -1.08242700
Se   22.33699000   19.66088000    4.17130000     -0.167456   -0.09812700    0.81521800
Se   21.42782000   21.23950000   10.86158000     -0.199105   -0.19144600   -0.05464300
Se    2.66996000    4.68444000    7.26210000     -0.038518   -0.20278600   -0.24904600
Se    1.94170000    3.55720000   13.17702000      0.393919    0.33957800    0.06778300
Se   22.59089000   11.52590000    4.82625000      0.526261    0.51465900   -0.45960700
Se    0.70274000    9.06070000   14.29800000      0.302790   -0.04439700   -1.00681300
Se    1.68573000   14.54893000    1.68058000     -0.505594    0.19428300   -0.44962800
Se    0.93420000   16.84197000   14.03267000     -0.759817   -1.24803000    0.82626300
Se    2.69218000   21.76732000    1.92381000      0.211929   -0.73341500   -0.69499200
Se    5.42680000   18.07154000   17.09673000      0.025111   -0.30830300    0.06757500
Se   10.57360000    3.76493000    4.56244000      0.089792    0.94752600   -0.01399800
Se    7.40795000    2.65821000   13.00016000     -0.092955   -0.09052600    0.04887500
Se    7.16498000    9.71577000    3.49700000     -0.988813   -0.10525600    1.55500600
Se    8.04695000   10.96481000   13.50733000      0.077247   -0.81901300   -0.12298100
Se    7.64854000   15.36160000    1.45565000     -0.063764    0.19842700    0.10612600
Se    9.33741000   15.24390000   14.26986000     -1.239677   -0.65952000   -0.14152100
Se    7.69993000   21.89827000    9.12016000     -1.178442    0.62907400   -0.65167600
Se    6.11173000   20.75964000   14.47800000     -0.295468    0.35408100    1.28746700
Se   15.49976000    0.97584000    2.45539000     -0.777107   -0.10496200    0.24860100
Se   10.31450000    5.31975000   13.75742000      0.695146   -0.29707100    0.56787700
Se   14.19156000    9.83171000    0.51383000     -0.465389   -0.72548800    0.91722600
Se   15.32366000   10.93440000   13.51938000      0.699921   -0.58396700   -0.92342900
Se   10.13501000   16.24939000    7.02388000     -0.019962    0.27923900   -1.22084200
Se   13.18081000   16.91545000   11.64610000      0.347297    0.73345300   -0.55138300
Se   14.43808000   21.26752000    2.73521000      0.258935   -0.24916200   -0.72227300
Se   15.79678000   23.28593000   13.84727000     -0.100817   -0.07209600   -0.09410800
Se   18.73250000    5.66465000   18.92086000      0.480274    0.89278500   -0.28112800
Se   14.96523000    5.37597000    8.56262000     -0.397832    0.69706700    0.25485600
Se   20.61288000    7.80982000    3.08412000     -0.739588    0.40933100    0.28088600
Se    0.16635000   12.68836000   12.55918000      0.609420    0.45304500   -0.00214000
Se   20.14486000   16.15107000    4.02826000     -0.954871   -0.43373100    0.86406300
Se   18.70469000   17.30329000   13.86394000      0.330275   -0.25606000   -0.12351400
Se   19.36392000   22.26699000    4.73308000      0.304039   -0.46566900   -0.38734800
Se   18.59814000    0.45649000   13.78785000      0.673787   -0.20175700   -0.28313400
