384
23.69824000 23.69824000 19.89960000
Ge    5.60220000    6.19365000   11.63997000      0.767628    0.65054900    1.33622400
Ge    5.82447000    5.65838000    3.29490000      0.583786   -1.14211800    0.15707200
Ge    1.82707000   12.23495000    7.07964000      0.512380    0.24818700    0.09072400
Ge    9.19806000   14.43154000   17.15755000      0.216078   -0.18462600   -0.72873700
Ge    5.06159000   15.18487000   10.31464000     -0.384345   -0.20084100    0.42449900
Ge    9.63995000   18.17097000   19.36260000      0.186054    0.50601000   -0.31103700
Ge    6.63957000   23.40850000   11.19367000     -0.083854   -0.32550100   -0.76426700
Ge    5.76040000    2.32471000    0.77424000     -0.089551   -0.42254900   -0.49825300
Ge    9.72453000    5.62803000   11.35553000     -1.302385   -0.33820900   -1.88958300
Ge   11.04005000    5.58544000   19.64159000      0.342003   -0.04553100    0.06380000
Ge   11.15373000   10.02691000   10.85585000      0.150579   -1.32100300   -0.45919200
Ge   13.51596000   11.60053000   18.95750000     -0.644096    1.77354500   -0.90962700
Ge   10.54184000   17.62052000    8.92810000      0.292517    0.26601000    1.48365600
Ge   13.43864000   16.03848000    0.51536000      1.265221   -0.04014400   -1.24577700
Ge   11.25395000    0.02231000    9.28258000     -0.117582    0.47640300    0.04019000
Ge   16.14359000   22.98393000   18.89886000     -1.004455   -0.01873500    0.07734200
Ge   18.77904000    4.93015000   11.17492000      0.338510   -0.02070000    0.43444400
Ge   19.64448000    9.02512000   17.18217000      0.137687    0.66858800    0.05374500
Ge   20.36796000   12.64404000    9.91713000     -0.801918    0.01175300   -0.84777000
Ge   18.19011000   11.72372000   18.30261000      0.268599    0.16707100    0.19149000
Ge   15.08570000   18.95470000    8.95250000     -0.276534   -0.58381600    0.21091600
Ge   19.11364000   16.31991000   19.15566000     -0.636875   -0.69045400    0.11741500
Ge   19.87238000    1.56618000   12.10020000      0.377083    0.62943800    0.65848300
Ge   19.77546000    3.61939000    2.49537000      0.376877    0.32218300   -0.00790700
Ge    0.00444000    5.74012000    9.12049000     -0.417849    0.34802200    0.22747600
Ge    1.99837000    3.54086000    4.91574000     -0.703128   -0.76196600   -0.23105500
Ge    2.10064000   10.12700000    9.42589000      0.022251   -0.43508100    0.02075500
Ge    0.06312000    9.66898000   18.96661000      0.223762    0.27440400    0.50803800
Ge   22.18436000   16.05625000    8.95698000      0.726330   -0.55925600    0.87356900
Ge    1.14618000   14.67525000   19.03465000      0.925756   -0.31501000    0.66074900
Ge   19.34544000    0.67015000    9.76719000     -0.314539   -0.95158000   -0.36794400
Ge    0.99205000   21.38260000   19.74174000      0.325512   -0.47757000    0.32432400
Ge    4.71462000    7.87113000    8.64800000     -0.102768   -0.32422300    0.47740700
Ge    2.53038000    7.08494000   19.75382000     -0.600053   -1.11652600   -0.46619400
Ge    1.74148000    9.91531000    5.34963000     -0.792931    0.74113200    0.89929500
Ge    4.22725000   12.35215000   16.03647000      0.587708    0.63169100   -0.13387300
Ge    5.85157000   18.76383000    3.60617000     -0.261390   -1.01859900   -0.58497800
Ge    0.35851000   17.53763000   18.36369000     -0.419646    0.52168900    2.06023000
Ge    5.81534000   19.86780000    8.75575000     -0.191684    0.19549300    0.11025000
Ge    3.70570000   23.17389000   17.87096000      0.117709   -0.26192800   -0.22690900
Ge   10.13218000    2.53331000    6.73366000      0.371655    0.71996900    0.85257900
Ge    6.98902000    9.14420000   18.84603000      0.059467   -0.76732300    0.36330600
Ge    6.29571000   12.62803000    6.42642000     -0.086799    0.03331600    0.24086800
Ge    8.52340000   10.02754000    1.71217000      1.602201   -0.24149400    0.08166700
Ge    7.79173000   18.44109000    6.53452000      0.306669   -0.01973700    0.93875500
Ge    4.33848000   19.87880000   18.82209000      0.900381   -0.00054500   -0.71919200
Ge   11.66429000   22.96099000    6.25950000     -0.489886   -0.04578600   -0.03113300
Ge   10.34201000    1.16306000   17.41580000     -0.512927    0.82543800    0.11576700
Ge   12.67686000    6.82702000    5.86769000     -0.103442   -0.76072000    1.13279200
Ge   14.02170000    8.45734000   18.40062000      0.496593   -0.09835300   -0.12299600
Ge   16.33743000   11.49656000    6.95071000     -1.270480    0.91352600    0.63636300
Ge   16.77217000   15.37105000   15.61059000     -0.625266   -0.21274800   -0.22131400
Ge   12.54928000   16.93434000    4.60578000     -0.071333   -0.38286700    0.18113900
Ge   15.10504000   18.88007000   16.67809000     -0.891466   -1.25078400   -1.11110000
Ge   15.29920000    0.34802000   10.12059000      0.279452   -0.07033900   -0.65106500
Ge   16.55501000    4.45801000   18.25990000     -0.183865   -0.14294400   -0.17620600
Ge   19.72185000    5.55917000    7.83770000      1.934744   -1.85227400    2.20516000
Ge   21.10407000    5.68422000   16.54786000      0.216931   -1.04156200   -1.42024200
Ge   19.73982000    8.55226000    7.90283000     -0.100661    0.40626400    0.06584300
Ge   22.13340000   12.68138000   18.46404000     -0.516483    0.89142300   -0.03063700
Ge   19.39020000   17.54289000    7.53998000      1.306412   -0.27220100   -0.04091800
Ge   20.91486000   18.86305000   16.68990000     -0.906398    0.33918100   -0.30268200
Ge   19.73149000    0.80453000    5.76064000      0.197393    0.30479000    0.34450700
Ge   20.32150000   21.41532000    1.04431000     -1.157884   -0.48385000    0.02701000
Ge    6.09458000    3.21658000    9.02283000      0.490563   -0.64837900    0.33417800
Ge    4.28767000    3.38851000   17.19274000      0.037247   -1.95352700    0.53525900
Ge    3.45993000    6.87111000    5.60900000      0.617622   -0.30726100   -0.16788500
Ge    3.08228000    9.14777000   13.65784000     -0.872114    0.90552700   -1.31073600
Ge    1.61847000   17.25714000    6.15874000      0.420882    0.61589100    0.20811000
Ge    1.93547000   15.19036000   15.99282000      0.146876   -0.15371900   -0.72234300
Ge    0.27325000   19.98542000    9.36942000     -0.592252   -0.55309300    0.01754700
Ge    2.86309000   20.88893000   13.81703000      0.618789    0.80979600    0.45499600
Ge    9.29548000    2.91901000    2.60547000     -1.143736   -0.43619800   -0.78528500
Ge    8.34918000    2.11831000   15.42926000     -0.041996    0.37704100    0.02960800
Ge    9.11436000   10.89254000    5.28151000      0.370329   -0.00639500   -0.59496000
Ge    7.39302000   10.20143000   15.62550000      1.070548    2.49156400    0.27870600
Ge    9.08557000   14.06914000    7.37874000      1.260151   -0.27306800   -1.01611100
Ge   14.26753000   11.83425000   15.54414000     -0.131453    0.44297700    1.11271200
Ge    7.77255000   21.26611000    5.26372000     -0.060278    0.95654900   -0.59571000
Ge    8.74147000   20.27040000   15.43030000     -0.316460   -0.67863600   -0.27067700
Ge   14.77712000    1.92771000    6.44667000      0.526275   -0.14527100   -0.58607500
Ge   12.74977000    2.51651000   15.85195000     -0.273600    0.28293400    0.77467100
Ge   14.84019000    9.69210000    4.15236000      2.400854   -1.06171100   -0.86484100
Ge   15.58057000    8.44092000   14.41682000      0.062394    0.51127100    0.80740200
Ge   16.08652000   13.52779000    3.91336000     -1.285739    0.33790500   -0.48644300
Ge   13.19195000   16.38274000   15.26713000      0.592059    0.67861900   -0.67266400
Ge   13.92083000   19.34448000    0.64186000     -0.503567   -0.19535700    0.82751100
Ge    9.85416000   21.24968000   19.75608000     -0.550574    1.95194400   -1.68662700
Ge   22.87829000    4.25585000    4.52431000      0.134437   -0.59657200   -0.39493800
Ge   21.24934000    2.57939000   15.12614000     -0.003686   -0.02797900    0.29903200
Ge   22.39125000    9.84681000    6.59361000     -0.649799   -0.53630300    0.89690900
Ge   20.26239000    9.59613000   13.23570000     -0.048240    1.55967600    0.56638400
Ge   21.64571000   16.85467000    2.34596000      1.997244   -1.23783900    1.59576300
Ge   19.73217000   14.76448000   13.88173000     -0.304369    0.21900200   -0.20237100
Ge   20.90120000   20.45145000    6.18576000     -0.497235   -0.51768300   -1.06536100
Ge   20.68080000   22.82207000   18.00221000      0.057280    0.99150400   -0.13478700
Ge    6.05223000    4.26771000    5.82910000      0.306960    0.87815400   -0.68400600
Ge    4.14931000    0.90295000   14.10750000      0.341102   -0.10729900    1.12698300
Ge    5.28063000   11.37184000    3.33206000     -0.285525    0.57283300   -0.13825600
Ge    7.97928000    8.30562000   13.13916000     -0.541721    0.13395800    0.58493900
Ge    5.37870000   16.04938000    0.33493000      0.707665   -0.70804800   -0.48787400
Ge    2.82128000   13.35223000   11.92812000     -0.612187   -0.22282300    0.83069400
Ge    4.71700000   22.63532000    6.52265000      0.108261    0.31089400   -0.56505100
Ge    6.98723000   20.47622000   12.38646000      0.656013   -0.52402200   -0.02551300
Ge   15.62312000    4.80156000    3.32045000     -0.173372    0.01570500   -0.05855900
Ge   13.45347000   23.30663000   13.04732000     -0.131280    0.44261200   -0.66182800
Ge   11.56567000    9.60938000    0.69312000     -0.563042   -0.36777300   -0.82512200
Ge   13.38570000    9.65945000   12.69275000     -0.657339    0.56878400   -0.77860900
Ge   11.08166000   13.63192000    1.92046000     -0.116718    0.20693500   -0.38843700
Ge    7.68521000   16.90607000   11.05338000      0.182262    0.06147400   -0.05807000
Ge   13.15674000   23.39854000    2.65554000      0.192586    0.43533300   -0.96825600
Ge   11.02146000   22.08767000   13.07830000      0.177800   -0.39745800    0.40535000
Ge   23.61573000    2.12768000   18.05155000     -0.282692    0.00551900    1.05497500
Ge   12.75199000    5.73554000   12.37901000     -0.361898   -0.07078300    0.50834100
Ge   17.95328000    8.80858000   19.66479000     -0.398570   -0.51783000   -0.29243000
Ge   13.17035000    7.03583000    8.55967000     -1.204760   -0.64635500   -0.85119600
Ge   20.51581000   12.50779000    2.91197000     -0.365520    0.75272600   -0.13582700
Ge   16.63913000   15.81767000    8.80835000      0.327697   -0.03670900   -0.52000900
Ge   17.28856000   21.50865000    3.05212000     -0.443333   -0.31534300    0.66308800
Ge   18.86099000   21.49775000   12.91727000     -0.199312    0.36510600   -0.39685100
Ge   23.69285000    1.09973000    3.27647000      1.717405    0.32320500   -0.59773700
Ge   22.92202000    2.36367000   10.59354000      1.579282    0.61708500    2.12358700
Ge   22.80782000    9.35545000    3.19964000      0.660392   -0.44113100   -0.19882500
Ge   23.14720000    9.11792000   12.04176000      0.248979   -0.03951800    0.25653800
Ge    1.72873000   14.23571000    5.06304000     -0.580690   -1.07722300    0.12925300
Ge   23.25671000   15.32802000   11.65982000      0.356699    0.44877000    0.30065700
Ge    0.41415000   21.21277000    4.21890000      1.249449   -0.51908500    1.12649700
Ge   20.99953000   18.45630000   12.93645000     -0.491395   -0.02744000   -0.36449400
Se    2.02858000    0.61958000   19.89751000      0.443857    0.35625400   -0.29870100
Se    1.74948000    1.77136000   10.46457000     -1.024532    0.01111700   -0.38248200
Se    0.46548000    7.94858000    0.87026000     -0.372794    0.27661600    0.38801300
Se    0.93974000    7.89721000   10.27641000     -0.352815   -0.06141200    0.34411300
Se   22.84191000   11.29664000    1.26264000     -0.698071    0.34781600   -0.55943700
Se    2.85901000   14.16369000    8.86780000     -0.673611   -0.14637200    0.23246400
Se    2.14276000   19.70009000    3.25006000     -0.021466    1.26855600   -0.16356400
Se   23.45592000   18.77529000   11.86098000      0.447615    0.07418900   -0.22340800
Se    5.89529000    2.94877000    3.17276000      0.351567    0.29576900    0.10123600
Se    4.57634000    3.12879000   13.38422000      0.805179    0.24531700   -0.55142700
Se    8.74620000    5.43453000    3.61522000      0.633065   -0.70449200    0.05710800
Se    7.57736000    9.14389000   10.95900000      0.431972   -0.29956700   -1.42101100
Se    7.67047000   11.36311000   19.82485000      0.077246    1.13406200   -0.23257200
Se    6.34714000   15.44776000   12.44837000      0.241233   -0.02672400   -0.31769900
Se    7.18117000   20.67911000    2.78780000      0.703842    0.39440200   -0.41028600
Se    9.53883000   20.35983000   11.70668000     -0.392163    0.15153200    1.01663800
Se   13.48198000    0.12253000   19.86969000      0.416615   -0.44902300   -0.49564900
Se   13.46535000    2.15305000   11.96735000     -0.256564   -0.10719800    0.25562400
Se   11.93275000    7.84380000   17.76633000     -1.014513   -0.00834600   -0.03363300
Se    9.84100000    9.51540000    8.08693000      0.572484    0.20910700    0.49258700
Se   13.34752000   13.42292000    0.88009000      0.254507   -0.21495100    0.27995900
Se   13.71369000    9.25175000    9.10353000     -0.287083    0.20692200    0.60231500
Se   15.70739000   16.42547000    1.67812000     -0.351068    0.07333100    0.24968400
Se   12.29636000   18.84354000   10.61153000     -0.011208   -0.81678000    0.02637400
Se   18.23118000    4.45289000    4.37637000     -0.452850   -0.30448800    0.12179100
Se   13.78535000    3.76834000   13.77589000      0.024271    0.04411800   -0.37480100
Se   14.78174000    5.65092000   16.58655000      1.100057   -0.06438200    0.82096600
Se   18.99031000    4.60077000   13.95341000     -0.335605   -1.11133800   -0.18164500
Se   19.95967000    9.59236000    0.74739000     -0.544478    0.92427200    1.00670400
Se   17.30810000   18.61937000    7.63844000     -0.713694    0.05413100    0.07196400
Se   20.55069000   17.95938000    0.71046000     -0.473899    1.19887900   -1.84826000
Se   19.64715000   19.54892000   10.97442000     -0.096125    0.46327100    0.50889300
Se    2.37263000    1.22783000    3.46506000      0.100161   -0.02723400    1.05507200
Se    2.66811000    5.72559000   12.33097000     -0.159640   -0.18463200    0.59575900
Se    5.22324000   11.81524000    0.61913000      0.104210   -0.17028900    0.39266700
Se    4.34108000   12.24594000   10.44168000      0.407091   -0.04425800   -0.63334800
Se    3.93281000   14.06131000    1.27331000      0.741075    0.27019900   -0.29088700
Se    3.00383000   15.99288000   12.04086000     -0.296947   -0.74017900   -1.12251600
Se    5.52827000   21.98078000   19.11844000     -0.008977   -0.22411100    0.16041500
Se    4.96030000   21.00196000   11.19581000      0.234537    0.22200200   -0.02335800
Se   12.99356000    6.57778000    1.55243000     -0.418994   -0.92663000    0.22416800
Se    8.88241000    2.97004000   10.72531000     -0.237286    0.66357500    0.28189800
Se   10.53910000   12.28077000   18.86594000      0.702976   -0.74800100   -0.53660800
Se   11.20718000   12.08441000   12.10372000     -0.270601    1.55850400   -1.51249200
Se   11.78668000   16.07277000    2.16369000     -1.018856    0.51060900    1.63828300
Se   11.55626000   14.74505000   13.68379000      0.208314    0.51961400    0.30157100
Se   11.83376000   22.96991000   17.59626000      0.738036    0.07892900    0.84321300
Se    9.55214000   23.12868000   11.41228000      0.270598    0.57995600   -0.50789700
Se   11.79421000    3.22548000   18.11096000      0.337767   -0.14694900   -0.49810900
Se   17.80937000    8.00824000    9.63842000     -0.750466   -0.49455800   -0.74022200
Se   16.44529000    8.75748000    2.14202000     -0.200744   -0.31902600    0.09778000
Se   17.45254000   13.45175000   10.46827000      0.491299    0.02983300    0.51294000
Se   18.98808000   14.91890000    2.29805000      0.053397   -0.29488700    0.72017500
Se   14.65950000   15.00918000    7.55987000     -0.833589    0.49245100    0.34005900
Se   17.86345000   22.63577000    1.02768000      0.488793    0.50879500   -0.29739800
Se   17.66689000   22.34871000   10.75481000     -0.126031    0.25129900   -0.13772900
Se   23.63313000    3.20907000    2.28852000     -0.216555    1.30222500   -1.08789800
Se    0.02847000    4.73130000   11.51501000     -0.807910   -0.36658000   -0.96655300
Se   21.55602000    5.85465000    2.52967000      0.762794   -1.05881800    0.43133200
Se   21.14774000   11.84706000   11.94252000      0.171294   -1.01611700    1.45775800
Se   22.50092000   14.47338000    2.09591000     -0.472382   -0.01855000    0.07020200
Se   20.79133000   15.70649000   11.77858000      0.027737   -0.37242200    0.38686900
Se   23.21233000   22.63727000    2.64474000     -1.424813   -0.40701900   -1.51838700
Se   21.56661000   23.11310000   15.87365000     -0.058114    0.06786100   -0.43913700
Se    4.65980000    5.11140000    9.79779000     -1.218665   -0.32879900   -1.37424700
Se    4.86291000    5.39167000   18.15320000      0.257519    1.14205000    0.67021200
Se    4.30042000   11.28909000    7.77182000     -0.340047   -0.42992900    0.05749900
Se    3.50474000    7.49644000   15.20753000      0.694100   -0.44132100    0.62329200
Se    5.36883000   20.12777000    6.08826000      0.559392   -0.31842900    0.22612500
Se   22.56053000   15.60487000   19.15299000     -0.250833   -0.06942800   -0.10892500
Se    0.71042000   21.85144000   10.90482000      0.017653    0.86360300    0.17273500
Se    2.77286000   20.74303000   17.13292000     -0.179038    0.14462200    0.48517600
Se    7.82302000    4.26081000    7.58843000      0.693247   -0.41490000   -0.44506700
Se    6.27138000    4.76507000    0.31504000     -1.009126    0.37157100    0.30728300
Se    7.51331000   10.38393000    7.04486000     -0.297808    0.07168100    0.80600200
Se    3.25596000   10.17768000   18.73307000      0.099779   -0.16489500    0.10724600
Se    6.49349000   17.24712000    8.48280000     -0.073275    0.70225500    0.41012300
Se    6.49777000   15.90373000   17.94447000     -0.955881    1.48285600    0.30369000
Se    9.27166000   19.78122000    8.52507000     -0.065691   -0.81369300   -0.84212200
Se    8.73257000    2.13695000    0.29969000      0.307099   -0.29171600    0.15544700
Se   13.81877000    2.09427000    8.60700000     -0.388053    0.13605000    1.24356200
Se    8.22245000    4.89622000   18.61057000      0.977746   -0.14260300    0.63027700
Se   10.51995000    6.07107000    8.90943000      1.179752    0.63681900    0.02335000
Se   16.68730000   12.83163000   16.63033000     -0.579093    0.40199100   -0.60517000
Se   13.51264000   17.40042000    7.43680000      0.250678   -0.52896700    0.44687200
Se   14.85856000   16.21264000   17.11698000      0.882476    0.92415200    0.88825700
Se   15.94328000   23.02045000    7.52918000     -0.624047   -0.01196500   -0.11461200
Se   17.92680000    1.47223000   17.12673000     -1.853393    0.47905400   -1.62661300
Se   16.71160000    3.70124000   11.41171000     -0.402210   -0.13424800   -0.37736700
Se   21.06311000    3.56699000   17.78748000      0.053658   -0.37843600   -0.27962300
Se   18.04314000    9.76229000   12.25427000      0.115122   -0.96152300   -0.18194000
Se   20.98101000   10.50003000   15.54376000     -0.640933   -0.64488000   -0.15632400
Se   15.85225000   17.16197000   10.65406000     -0.915598    0.46446900    0.40220400
Se   19.74192000   13.67441000   19.06189000      0.333453   -0.74038300    0.04298300
Se   19.02195000   22.31190000    7.73812000     -0.469938    0.57075500    0.66288200
Se   18.84047000   19.30391000    1.83507000      0.144680    0.41436000    0.12852600
Se    5.84608000    0.26277000    8.61806000      0.667411   -0.55236200    0.62635400
Se    3.17069000    2.75231000   19.79993000      0.051935   -0.13219300   -0.48293300
Se    7.43689000    6.93262000    9.69498000      0.218711    0.96542500    1.06883300
Se    4.44723000    8.47688000    0.08457000      0.861525    0.57401500    0.42766500
Se    4.13867000   16.78043000    5.88348000     -0.174482   -0.23870600   -0.15840600
Se    6.95173000   12.39212000   16.95169000     -0.611910   -0.55526500   -0.61619300
Se    2.71906000   19.34358000    9.18246000      0.264532   -0.19205500   -0.18732300
Se    0.72858000   18.92745000    0.58557000     -0.290144   -0.22014500   -0.47304800
Se    9.21470000    0.47307000    7.06086000     -0.063018   -0.86426100    0.32514800
Se   12.30960000    4.17564000    1.43401000     -0.062928    0.86006700   -0.06241600
Se   11.30764000    2.94104000    9.09299000     -0.390849   -0.55927200   -0.18733200
Se    8.77077000    7.95908000    0.65809000     -0.451464   -0.46333900   -0.78384400
Se   11.42045000   13.15025000    7.83045000     -0.516720    0.16197900    0.37664900
Se    9.61387000   14.91696000   19.67456000     -0.139138   -0.38902700    0.42732200
Se   13.49161000   22.37344000   10.57664000     -0.076709    0.37969800    0.60213500
Se   12.30459000   14.67606000   16.52316000     -1.030569   -1.07579400    0.45485300
Se   18.11081000    2.03620000    8.02102000      0.028391   -0.56091800    0.26322100
Se   18.52544000    5.41215000    1.31386000     -1.445797    0.07848900   -0.04566600
Se   16.15187000    7.38240000    7.76285000      0.490115   -0.13522000    0.72988700
Se   15.33487000    9.73935000   16.73585000      0.421639   -0.34505900    0.33816000
Se   15.01433000   12.41218000    8.71104000      0.111081   -0.13663200   -0.89904500
Se   16.33531000   12.03115000    0.13541000      0.739842    0.53992000    0.26233800
Se   14.94902000   18.65410000    4.84635000     -0.581472    0.71138800   -0.56185500
Se   19.50039000   20.81511000   18.45237000      0.420696   -0.20472500    0.08261600
Se   21.83578000    1.61022000    8.64567000     -0.669339    0.22659000   -1.01158300
Se    0.26483000    0.98944000   15.95017000     -0.232798   -0.22054800   -0.53660200
Se   20.93885000    6.80368000    9.53516000      0.472859   -0.19918500   -0.30085800
Se   22.71937000    6.80728000   17.69947000      1.603499   -0.02959100   -0.13854800
Se   23.62238000   11.22722000    8.49714000      0.431144   -0.00217500   -0.28278400
Se   21.47511000    8.47349000   18.99271000     -0.558869   -0.49361300   -0.46031200
Se   21.54828000   18.30412000    8.82047000     -0.598538    0.82683900   -0.94167600
Se   19.80745000   16.30447000   16.85569000      0.235561    0.61145000    0.23668000
Se    1.17029000   23.58518000    9.17673000      0.148434   -0.25112500    0.38765900
Se    2.42995000   23.42435000   13.03105000      0.100635   -0.91800100   -0.06120700
Se    2.32332000    7.84298000    7.64219000      0.236997    0.52218200    0.67961000
Se    1.93610000    8.30231000   17.46892000      0.010119    0.41353200    0.37534800
Se    1.05605000   15.49944000    7.87730000      0.129202   -0.17288100   -0.37501100
Se    1.97075000   12.67093000   17.65022000     -0.250267    0.10207000    0.26860900
Se    2.45001000   20.46117000    7.09430000     -0.147060   -0.27426600   -1.40421900
Se   23.45060000   18.95855000   16.70198000     -0.490290    1.32716100   -1.05508800
Se    6.22304000   23.36603000    4.47919000      0.143375   -0.83737000    0.71785400
Se    6.39674000    1.41617000   17.66708000     -0.492256    0.43378600   -0.41827300
Se   10.33817000    7.32431000    5.50147000     -0.306980   -0.67308400    0.25554600
Se    5.80630000    8.60740000   15.93588000     -1.042454   -1.88929400    0.57247800
Se    7.08170000   14.12939000    8.50433000     -0.631749   -0.77897600   -0.03497400
Se    8.53137000   18.16339000   13.00758000     -0.459688    1.21745400   -0.48664400
Se    7.77533000   16.78985000    3.24909000     -0.117848    0.81364800    0.93080600
Se    8.89359000   17.01627000   15.69528000      0.337305    0.01835700    0.46313700
Se   14.24232000   21.98081000    5.61767000      0.799935    0.08067400    0.16111700
Se   14.85634000   23.04364000   16.09063000      0.079460    0.98671600   -0.24142600
Se   12.81386000    8.99176000    4.90710000     -1.016046   -0.34869300    0.17117300
Se   10.42135000    7.73134000   13.52424000      0.312885    0.30157300   -0.14057600
Se   14.28531000   11.77715000    4.85123000      0.013126    2.05486000    0.43961100
Se   14.77259000   15.41830000   13.71667000      0.465204   -0.26788600    0.37168600
Se   12.62990000   19.30597000    3.82602000      0.618787   -0.63803100    0.61590700
Se   15.25257000   20.13087000   18.66135000      0.609743    1.09662600    0.70525700
Se   17.86952000    2.01629000    4.47218000      0.383369   -0.33197300   -0.29997600
Se   19.31737000    1.22910000   18.79078000      1.466007   -0.65913900    1.17985500
Se   19.19590000    6.72886000    6.09351000     -0.132589    1.86699800   -1.98711000
Se   19.16889000    6.97861000   15.89623000      0.224038   -0.40115600    0.24124500
Se   20.34374000   12.02646000    5.50586000     -0.883026    0.44979500   -0.32371800
Se   17.54415000   13.66429000   12.84302000      0.415746    0.01345400   -0.18254200
Se   19.39712000   18.41230000    5.09606000      0.191450    0.04945900    0.79799100
Se   20.66610000   20.53928000   14.32461000      0.726864   -0.10695600    0.57074500
Se    5.86481000    6.79390000    6.73491000     -0.670171   -0.20203900   -1.18624900
Se    2.28378000    2.56534000   15.69271000     -0.240157   -0.40706200   -0.00649300
Se    3.61445000    9.52586000    4.09519000      1.119921   -0.91949100   -0.93386000
Se    4.20157000   11.50771000   13.45559000     -0.406172   -0.14605100    0.72123300
Se    4.14405000   14.43209000    5.27660000      0.442952    0.61825100   -0.04592700
Se    2.53978000   16.78039000   17.97371000      0.671268   -0.79237100    0.06990300
Se    1.61033000   22.59238000    6.22647000     -0.362235   -0.23768300   -0.74477000
Se    2.52113000   19.45249000   11.75863000     -0.009546   -0.40074300    0.92229400
Se   12.59922000    1.36823000    5.36181000     -0.676353    0.48854700   -0.34526000
Se    8.80369000    4.54909000   16.43878000     -0.033350   -0.15242200   -1.24678800
Se   11.76946000   10.82972000    7.34231000     -1.120108    0.16836400   -0.32959600
Se   10.70781000   11.78082000   16.40768000     -0.200875    0.59874100    0.85962700
Se    9.81826000   15.87585000   10.80250000      0.634560    0.12771100   -1.19132900
Se   11.74283000   19.86304000   19.13077000      0.212571   -0.84432800    0.04929400
Se   10.37523000   22.40395000    4.10415000     -0.307387   -0.00541700   -0.48260500
Se    8.24474000   19.82322000   17.79188000      0.190866    0.15006100    0.89992900
Se   13.52765000    4.59173000    5.25063000      0.763212    0.26006000   -0.58783700
Se   14.95560000    6.28877000   19.12208000     -0.697882   -0.37991600   -0.58625200
Se   17.41362000    9.59830000    6.44540000      0.124808   -0.92380000   -0.66447600
Se   17.41369000    7.38237000   13.42373000      0.051197    0.67209500   -0.53918800
Se   17.43745000   13.23662000    5.84643000      1.413344    0.70380900    0.51386000
Se   12.71074000   18.69256000   15.22735000      0.416948    0.05477600    0.33558000
Se   16.14700000   23.55469000    4.54057000     -0.230145    0.14905700   -0.61132100
Se   16.77779000    3.50533000   13.72998000      1.137405    0.54787300    0.75676700
Se   21.57143000    3.89629000    7.45677000      0.140272   -0.18912800   -0.12409500
Se   22.29436000    4.72384000   14.40293000     -0.499091    0.46356000    0.85596500
Se   18.23602000   11.14129000    9.78090000      0.024833    0.36404400    0.27043900
Se   22.08088000   13.69041000   15.83507000     -0.582145    0.75962200    0.33866600
Se   20.01070000   15.28418000    8.41972000     -1.144739   -0.31290900   -1.20157200
Se   22.93842000   16.27687000   15.99259000      0.000485   -0.06025800   -1.13488600
Se   21.28866000   22.13160000    8.38889000      0.385978    0.06580700    0.35144600
Se   22.30467000    0.12519000   19.42167000      0.517723    0.12665700    0.28995000
Se    4.08150000    2.80251000    6.45897000      0.005984    0.13678800    0.86226700
Se    5.92154000   23.45891000   15.91911000     -0.687687    0.45861500   -0.46646200
Se    3.36221000    5.01202000    3.61747000     -0.033011    1.02017300   -0.68142000
Se    4.37338000    8.51537000   11.48517000     -0.568777    0.06164400    0.32992700
Se    1.03149000   11.24693000    2.56326000      1.102855   -0.11560000    0.53569400
Se    4.34634000   14.79746000   15.44070000     -0.233630   -0.68542400   -0.18325300
Se    4.60118000   18.25552000    0.78612000     -0.146875    0.37974500    1.08183200
Se    3.84174000   17.87845000   13.12289000      0.400383    0.68518100    0.42510200
Se    8.71976000    0.23975000    2.77152000      0.688888    0.60915500    0.30131200
Se   10.76168000    1.74095000   14.58865000      0.078337   -0.04634400    0.06752100
Se   10.72794000    9.80910000    3.00296000     -0.203237    0.70479800   -0.45011100
Se    8.68474000    8.77424000   17.15154000      0.573822    0.06408100   -0.87868900
Se    8.57631000   13.37347000    4.95863000     -0.027655    0.20127000    0.45024900
Se   11.49890000   10.84386000   13.97639000      0.300560   -1.01093200    1.08932000
Se    9.40175000   19.78362000    1.58772000     -0.533101   -1.59704800    1.71825100
Se   10.10551000   22.27369000   15.46606000      0.152063    0.13265800    0.01163600
Se   17.85664000    4.28814000    8.64765000     -0.721229    0.20479000    0.16807000
Se   15.07780000    1.72843000   16.80493000     -0.083044   -0.91797300   -0.34222300
Se   16.70179000    7.05316000    3.80270000      0.193074    0.13236600    0.38881700
Se   13.27799000    7.71605000   14.22865000     -0.048572   -0.91291600    0.08462900
Se   17.28812000   11.97619000    2.45719000      0.276211   -0.41428500   -0.84344400
Se   17.62634000   18.93392000   15.70314000      1.183571   -1.16250000    0.22553300
Se   15.21458000   16.36754000    4.06034000      0.066113   -0.21137400   -0.31250400
Se   16.96978000   20.40841000   14.15800000     -1.241714    0.88617900   -0.89402900
Se   22.13643000    1.69194000    4.78899000     -1.032380    0.73025100    1.80722500
Se   22.24831000    1.11808000   12.83483000     -0.341499    0.47869600   -1.17446500
Se    0.09980000    7.97549000    5.61099000     -0.057181    0.23370300   -0.71406300
Se   21.13389000    7.56291000   12.61771000      0.735212   -0.23092500    0.04323100
Se    0.18476000   15.99123000    4.60172000     -0.120677    0.62947900   -0.45302300
Se    0.30976000   12.65741000   15.23436000      1.219681   -0.55061900   -0.77752300
Se   22.32452000   19.66981000    4.22854000     -0.226556   -0.25659900    0.63427700
Se   21.42592000   21.22186000   10.78130000      0.000126   -0.23962700    0.04126600
Se    2.61089000    4.63112000    7.26485000      0.106795    0.03212700    0.01045700
Se    1.93650000    3.50627000   13.14960000      0.333056    0.48930900   -0.07872200
Se   22.54938000   11.54141000    4.82405000      0.825145    0.33716100   -0.39956200
Se    0.60038000    9.04882000   14.36376000      0.774258   -0.03461500   -0.94080800
Se    1.69782000   14.53668000    1.69430000     -0.728307    0.32181200   -0.49901700
Se    0.92195000   16.84251000   14.05631000     -0.716033   -1.23302100    0.82908000
Se    2.66618000   21.70547000    1.87058000      0.302423   -0.77231500   -0.46149300
Se    5.40642000   18.09107000   17.11635000      0.058653   -0.50239100    0.16513000
Se   10.55552000    3.72234000    4.56912000      0.158096    0.94934400    0.54433400
Se    7.40994000    2.64961000   12.99664000     -0.055407   -0.10641400    0.08098300
Se    7.16514000    9.72023000    3.52680000     -0.809300   -0.09710300    1.34021400
Se    8.06563000   10.96844000   13.49728000     -0.029876   -0.95689500    0.21442000
Se    7.64571000   15.30728000    1.49363000     -0.219776   -0.10465500   -0.23160100
Se    9.36070000   15.22029000   14.28332000     -0.812523   -0.63774000   -0.43833200
Se    7.70569000   21.92422000    9.13797000     -1.153760    0.34797200   -0.90187400
Se    6.06341000   20.70876000   14.50711000     -0.158205    0.32269200    0.98313400
Se   15.45925000    1.00693000    2.45106000     -0.709560   -0.36583000    0.40944400
Se   10.27878000    5.30702000   13.71633000      0.803934   -0.31818500    1.03321700
Se   14.17433000    9.89834000    0.57887000     -0.353236   -1.31212900    0.91555500
Se   15.39470000   10.94247000   13.56335000      0.451704   -0.67304200   -0.75567300
Se   10.11795000   16.26209000    7.01755000     -0.127318   -0.00764800   -1.16272900
Se   13.17199000   16.89901000   11.61690000      0.410739    0.67551800   -0.47327400
Se   14.40899000   21.23427000    2.67125000      0.389838   -0.13719600   -0.64374100
Se   15.80795000   23.28996000   13.85717000     -0.171279   -0.13217900    0.10094300
Se   18.67762000    5.69729000   18.90145000      0.443700    0.71328700   -0.52383100
Se   14.94473000    5.38713000    8.58978000     -0.079333    0.44319500    0.27549200
Se   20.58258000    7.84059000    3.05538000     -0.612786    0.29556700    0.16636600
Se    0.22298000   12.71950000   12.58149000      0.429662    0.32211800   -0.15073000
Se   20.11430000   16.15308000    4.04904000     -0.683106   -0.45765900    0.13443900
Se   18.69978000   17.27337000   13.96408000      0.364348   -0.15366000   -0.48835900
Se   19.32895000   22.27607000    4.77497000      0.196812   -0.64765200   -0.52947900
Se   18.67577000    0.44472000   13.81624000      0.373256   -0.26944900   -0.09093200
