384
23.69824000 23.69824000 19.89960000
Ge    5.56977000    6.19352000   11.50102000      1.968804    2.16645300    4.06682700
Ge    5.83763000    5.66651000    3.43241000      0.548396   -1.12605700    0.11466700
Ge    1.79221000   12.36072000    7.09286000      0.585272   -0.00372800    0.32706400
Ge    9.26046000   14.41747000   17.16196000      0.107311    0.06496600   -1.13436400
Ge    5.06736000   15.11362000   10.31190000     -0.675021   -0.22900600    0.05698100
Ge    9.61156000   18.17418000   19.44332000      0.275647    0.62448600   -0.26596800
Ge    6.72454000   23.28281000   11.18717000     -0.037891   -0.24411500   -0.45504600
Ge    5.82028000    2.25801000    0.82041000      0.095995   -0.63957800   -1.10890300
Ge    9.69705000    5.66259000   11.36930000     -1.254364   -0.57184900   -2.23448200
Ge   11.05771000    5.60256000   19.61352000      0.444019   -0.02447100    0.12264000
Ge   11.06040000   10.00103000   10.84152000      0.076451   -1.95784200   -0.77377100
Ge   13.57802000   11.62078000   18.94285000     -0.508707    1.20802100   -0.67540200
Ge   10.66912000   17.52247000    9.00596000     -0.174588    0.72618400    0.22283900
Ge   13.47698000   15.89732000    0.55760000      0.577351    0.75888500   -1.11429800
Ge   11.30365000   23.67331000    9.24967000     -0.195851    0.56956500    0.21215900
Ge   16.09987000   22.98108000   18.97226000     -0.977575   -0.21725600    0.07464300
Ge   18.72395000    4.91415000   11.18713000      0.026736   -0.15596700    0.38925500
Ge   19.74128000    9.06143000   17.09145000     -0.131385    0.59055200    0.29212100
Ge   20.31047000   12.58816000    9.84196000     -0.675044   -0.31949700    0.13690400
Ge   18.22633000   11.75609000   18.30675000     -0.147866   -0.09021800   -0.23263300
Ge   15.11305000   19.03563000    8.86603000     -0.096606   -0.83794100    0.39811900
Ge   19.10424000   16.30304000   19.03883000     -1.069785   -0.62591500    1.50045200
Ge   19.87725000    1.64951000   12.19882000      0.314979    0.42786100   -0.11201800
Ge   19.89302000    3.72003000    2.35347000      0.546770    0.26645500    0.32306100
Ge   23.64863000    5.70493000    9.10099000     -0.335887    0.35974100    0.34534000
Ge    2.10236000    3.55206000    4.99009000     -1.700208   -0.93216200   -0.69074700
Ge    2.14462000   10.04042000    9.49286000     -0.174343   -0.61853500   -0.14597800
Ge    0.11265000    9.80250000   19.00561000     -0.077037   -0.34391900    0.67205100
Ge   22.02445000   16.08203000    9.00632000      2.736833   -1.36520100    1.33581200
Ge    1.16977000   14.75034000   19.01157000      0.599684   -1.14572000    0.92882500
Ge   19.25926000    0.69911000    9.74968000     -0.183735   -0.63151900    0.05927500
Ge    1.00377000   21.37180000   19.88887000     -0.373672   -0.11945600   -0.99121600
Ge    4.71431000    7.89193000    8.58014000     -0.657181    0.19820100    0.95291500
Ge    2.40130000    7.03995000   19.71735000     -0.145844   -1.23850800   -0.46535800
Ge    1.80802000   10.03139000    5.41247000     -0.735258    0.05585700    0.72290000
Ge    4.30129000   12.38697000   16.04541000      0.174544    0.13515700    0.03984400
Ge    5.73798000   18.61035000    3.63483000      0.082093   -0.46961000   -0.80914200
Ge    0.38366000   17.50345000   18.44504000     -0.960393    0.84435400    0.59011000
Ge    5.77569000   19.91727000    8.75019000     -0.145374    0.15135700    0.24246800
Ge    3.79914000   23.22845000   17.90956000     -0.063460   -0.47578600   -0.34293800
Ge   10.06933000    2.48460000    6.83091000      0.841279    2.26435500    0.32942000
Ge    7.03433000    9.02048000   18.91379000     -0.061425   -0.01800600   -0.14795500
Ge    6.22237000   12.67735000    6.40085000      0.077083   -0.24589100    0.17356000
Ge    8.49004000   10.06626000    1.69214000      1.128621   -0.60911800    1.12694100
Ge    7.74956000   18.40086000    6.57932000      0.785641    0.26762400    0.56327800
Ge    4.37072000   19.94219000   18.82721000     -0.144384   -1.30771000   -0.82222900
Ge   11.55003000   22.89442000    6.30020000     -0.279573    0.32994200   -0.35817800
Ge   10.34370000    1.25689000   17.48598000     -1.064446    0.64070300    0.13192100
Ge   12.68875000    6.76920000    5.86829000      0.617808   -0.03372100    1.24672500
Ge   14.05023000    8.43615000   18.41551000     -0.814068    0.16142000    0.19132600
Ge   16.36035000   11.58995000    6.94236000     -1.710061   -0.10757200    0.97851300
Ge   16.72570000   15.44095000   15.61097000     -0.792154   -0.41697700    0.12284300
Ge   12.62956000   17.03143000    4.67474000     -0.611742   -0.88659900    0.38364600
Ge   15.03553000   18.89887000   16.66445000     -0.651294   -1.32926800   -0.92521500
Ge   15.22783000    0.32656000   10.12700000      0.852857    0.56622400   -0.54089300
Ge   16.43287000    4.36863000   18.35330000      0.516277    0.12708900   -0.27823700
Ge   19.73594000    5.58865000    7.93250000      1.004703   -0.66861200   -0.28972500
Ge   20.98487000    5.59825000   16.42917000      3.176939   -1.51795000    0.34261500
Ge   19.73316000    8.57534000    7.97816000     -0.071504    0.24591300   -0.54957500
Ge   22.16725000   12.62138000   18.55585000     -0.522921    0.89370300   -0.18877500
Ge   19.39793000   17.56912000    7.51771000      0.617697    0.24047600    0.10477900
Ge   20.85588000   18.86705000   16.61873000     -0.153475    0.54826000   -0.17076500
Ge   19.73425000    0.83606000    5.63173000      0.052133    0.59217500    0.42449700
Ge   20.34589000   21.40340000    0.95096000     -1.382720   -0.78461600    0.14675700
Ge    6.00480000    3.18808000    9.06415000      0.945677   -0.31325000    0.02851700
Ge    4.32332000    3.46982000   17.10653000      0.416763   -1.50924900    0.81485600
Ge    3.46820000    6.81731000    5.61383000      0.283751   -0.13638800   -0.61235400
Ge    2.99805000    9.27263000   13.67340000     -0.805184    0.31942200   -1.25374000
Ge    1.73214000   17.19514000    6.18520000     -0.002620    0.86361400   -0.39097900
Ge    1.98741000   15.23975000   15.96464000     -0.408462   -0.57519400   -0.75888800
Ge    0.34647000   19.92084000    9.28623000     -1.163138    0.09545700    0.56045900
Ge    2.84632000   20.93537000   13.78809000      0.700735    0.16895000    0.89211400
Ge    9.41938000    2.95745000    2.55640000     -1.036180   -0.44391400   -1.17672400
Ge    8.41081000    2.18449000   15.50781000     -0.330971   -0.58668000   -0.02339100
Ge    9.21151000   10.90886000    5.34765000      0.912931    0.40218200   -1.47984300
Ge    7.35487000   10.27788000   15.67389000      0.928183    1.28538200   -0.20254400
Ge    9.02484000   14.05499000    7.39378000      2.624017    0.01615600   -1.94434300
Ge   14.17519000   11.77372000   15.61197000      0.334275    0.41386100    0.39594500
Ge    7.75643000   21.37653000    5.35408000     -0.135873    0.57842300   -0.89251700
Ge    8.69745000   20.23548000   15.41973000     -0.514675   -0.82061700   -0.24482900
Ge   14.72105000    1.90688000    6.48263000      0.622431   -0.07859900   -0.85282300
Ge   12.72187000    2.49516000   15.85952000     -0.105452    0.31229100    0.51099900
Ge   14.96997000    9.78166000    4.26121000      0.821957   -1.27452200   -0.12790400
Ge   15.59023000    8.43165000   14.50622000      0.624123    0.53748200    0.56773400
Ge   16.00393000   13.52530000    3.93055000     -0.131323    0.04777400   -0.50652900
Ge   13.16283000   16.24520000   15.24976000      1.391646    2.51344900   -0.88253200
Ge   13.92846000   19.41674000    0.62423000     -0.413257   -0.49456600    0.97727500
Ge    9.95912000   21.27125000   19.64137000     -1.477686    1.70684200   -0.57683000
Ge   22.99016000    4.16888000    4.63743000      0.231015   -0.27450600   -0.72996400
Ge   21.18825000    2.59996000   15.11231000      0.268257    0.20199300    0.19791500
Ge   22.34991000    9.80839000    6.61875000     -0.204675   -0.38412100    0.25480200
Ge   20.30466000    9.66605000   13.26662000      0.872440    0.51847200   -0.18928100
Ge   21.76373000   16.85915000    2.40390000      1.358105   -1.04575800    2.03858900
Ge   19.72353000   14.74404000   13.85563000     -0.241007   -0.26338600   -0.09747600
Ge   20.87384000   20.43779000    6.16355000     -0.618166   -0.15613700   -0.20980000
Ge   20.63918000   22.91096000   17.94534000     -0.657025   -0.00620300    0.85238100
Ge    6.01167000    4.31384000    5.88275000      0.769066    0.74359900   -0.55437400
Ge    4.16356000    0.92142000   14.01103000      0.377190    0.13068700    1.14549300
Ge    5.32202000   11.40742000    3.35263000     -0.296297    0.42610600    0.08402200
Ge    7.99778000    8.34172000   13.09413000     -0.725105    0.12234800    0.83229700
Ge    5.37425000   15.88283000    0.32143000      0.360680    0.22853200    0.43642200
Ge    2.82137000   13.22651000   12.00595000      0.122282    0.02330800    0.62503100
Ge    4.74880000   22.66385000    6.58385000     -0.142528    0.16799400   -0.90669200
Ge    6.92627000   20.40349000   12.38427000      0.954384   -0.19066500    0.81505100
Ge   15.59212000    4.86640000    3.29568000     -0.174894    0.14984300   -0.12520500
Ge   13.45187000   23.33566000   13.06722000      0.160118    0.68257100   -0.30064500
Ge   11.60121000    9.63735000    0.61977000     -0.560030   -0.28298000   -0.56627700
Ge   13.46305000    9.66766000   12.72448000     -0.339182    0.52757300   -0.66950600
Ge   11.07567000   13.51889000    1.99127000      0.164572    0.84243800   -0.70529500
Ge    7.56690000   16.91023000   11.07809000      1.160861    1.06883600   -1.31456800
Ge   13.10865000   23.35807000    2.67007000      0.294632    0.28949000   -1.03170900
Ge   11.08517000   22.08696000   13.15855000     -0.540438   -0.14721300   -0.65651600
Ge   23.66815000    1.95134000   18.13941000     -0.155344    0.52270900    1.12344600
Ge   12.79699000    5.84428000   12.44850000     -0.315145   -0.28673300    0.74183300
Ge   17.89926000    8.81158000   19.65163000     -0.176883   -0.30538900   -0.15517100
Ge   13.19859000    6.95082000    8.61710000     -2.233934    0.12431100   -1.15111300
Ge   20.58616000   12.65159000    2.89464000     -0.447458    0.72026700   -0.11134400
Ge   16.68031000   15.84802000    8.72209000      0.957666    0.11800800    0.09663700
Ge   17.32002000   21.50000000    3.06351000     -0.340052   -0.07900600    0.03775700
Ge   18.84431000   21.42988000   12.95133000      0.132203    0.55717700   -0.48562900
Ge    0.08299000    1.12036000    3.21384000      1.042124    0.90980500    0.45265700
Ge   22.79860000    2.33980000   10.70181000      1.928805    0.70975300    1.32704400
Ge   22.82872000    9.38099000    3.17980000      0.666125   -0.48366300    0.06639100
Ge   23.17444000    9.10647000   12.22602000     -0.036769   -0.25280400   -0.51653700
Ge    1.85187000   14.13382000    4.94361000     -1.174875   -0.94976600   -0.45570100
Ge   23.32704000   15.38310000   11.61424000      0.042797    0.56297600    0.33936300
Ge    0.41304000   21.14797000    4.28545000      1.428464    0.44595500    0.65629700
Ge   20.92828000   18.44601000   12.82362000      0.199639   -0.04101900    0.54834500
Se    2.11102000    0.67224000   19.85033000      0.260275    0.19940000   -0.10805900
Se    1.75966000    1.74239000   10.48198000     -1.324221    0.00572700   -0.35688800
Se    0.49474000    7.95664000    0.94833000     -0.793750    0.81910500    0.26113500
Se    0.79479000    7.87339000   10.23216000     -0.042636    0.26741600    0.45375400
Se   22.68673000   11.32306000    1.32653000     -0.031346    0.10109300   -0.35377300
Se    2.77864000   14.15600000    8.89032000     -0.583322   -0.02902900    0.18070400
Se    2.13937000   19.64090000    3.25340000     -0.163319    1.12837300   -0.10367600
Se   23.36433000   18.79265000   11.82598000      0.356372   -0.26320400   -0.21282900
Se    6.00363000    2.93359000    3.11224000      0.258599    0.63696700    0.75771000
Se    4.62240000    3.27084000   13.39235000      0.902683   -0.35352400   -0.43048300
Se    8.81477000    5.46989000    3.64218000      0.617363   -0.76403900    0.21156800
Se    7.55497000    9.12677000   10.91300000      0.340073   -0.18156700   -1.39239400
Se    7.69551000   11.42216000   19.81906000     -0.301571    0.61442800   -0.43907000
Se    6.39193000   15.54467000   12.41411000     -0.497064   -1.18573600    0.80929900
Se    7.16196000   20.61879000    2.86273000      0.514380    0.13167000   -0.20611000
Se    9.66924000   20.41101000   11.73191000     -0.525038    0.33571000    0.69912900
Se   13.60196000    0.15534000   19.84722000      0.124092   -0.44339200   -0.15517200
Se   13.33114000    2.12163000   11.95845000      0.034905    0.06481000    0.65170600
Se   11.83876000    7.88745000   17.79155000     -0.083192    0.06038400    0.34869500
Se    9.83154000    9.45876000    8.12408000      0.417140    0.20133800    0.47765300
Se   13.37186000   13.43594000    0.81767000     -0.184487   -0.65934400    0.83112500
Se   13.65032000    9.20373000    8.98185000     -0.329076    0.35583700    0.66540400
Se   15.67784000   16.56494000    1.60625000     -0.208775   -0.19655300    0.59979600
Se   12.34072000   18.78232000   10.60757000     -0.306333   -0.13243300   -0.03149300
Se   18.21061000    4.42170000    4.30051000     -0.145333   -0.02954100   -0.11930400
Se   13.91860000    3.79451000   13.79375000     -0.533067   -0.22716700   -0.66344700
Se   14.73993000    5.59298000   16.53301000      1.019862   -0.17034400    0.92444300
Se   19.08018000    4.63227000   13.95908000      0.078366   -1.02067000   -0.33964800
Se   19.96261000    9.63945000    0.72354000     -0.802817    0.66855200    1.00794200
Se   17.32145000   18.79594000    7.54990000     -0.417833   -0.14793700    0.14283800
Se   20.61800000   17.81921000    0.68947000     -1.101531    1.24481100   -1.51096800
Se   19.67535000   19.48714000   10.99523000     -0.878050    0.67082300   -0.07317600
Se    2.43128000    1.19737000    3.62906000     -0.100286   -0.14359700    0.77949200
Se    2.66675000    5.62597000   12.27998000     -0.402156   -0.23578200    0.60452400
Se    5.24688000   11.78239000    0.71442000      0.375963   -0.10959700    0.20593300
Se    4.46991000   12.33967000   10.38482000     -0.130446    0.16514700   -0.31549800
Se    3.92348000   14.08250000    1.32236000      0.722124   -0.06426700   -0.16099600
Se    3.10508000   15.90387000   12.04738000     -0.588588   -0.80562000   -1.10926300
Se    5.53218000   21.88687000   19.14767000      0.728767    0.80142300    0.40180200
Se    4.94121000   20.93737000   11.24697000     -0.466343   -0.00253600   -0.14849200
Se   12.96312000    6.64215000    1.65957000     -0.272945   -1.16866000   -0.03283900
Se    8.87328000    3.03542000   10.74902000     -0.407077    0.52677800    0.35451100
Se   10.53225000   12.36348000   18.73579000      0.737270   -0.82951300   -0.05331700
Se   11.19545000   12.04883000   11.93808000     -0.156852    1.82609500   -0.61758800
Se   11.74497000   16.07058000    2.19059000     -0.609164   -0.06753900    1.11129700
Se   11.68348000   14.64115000   13.65542000     -0.652862    0.60842000    0.41771700
Se   11.72939000   23.02457000   17.65859000      1.035714    0.02385600    0.74439700
Se    9.50390000   23.24641000   11.34248000      1.100963   -0.13782600    0.09418900
Se   11.79121000    3.15617000   18.17089000      0.573718    0.17577600   -0.40719600
Se   17.81011000    8.01951000    9.56384000     -0.824197   -0.63983900   -0.26788600
Se   16.53560000    8.82489000    2.17410000     -0.068752   -0.37335700    0.11755900
Se   17.44090000   13.53083000   10.47296000      0.797226   -0.53476500    0.03973500
Se   18.93688000   14.86434000    2.27568000      0.122409   -0.12094700    0.90100200
Se   14.77533000   15.05490000    7.57813000     -1.690600   -0.14500800   -0.08486900
Se   17.87271000   22.71534000    1.01068000      0.635878    0.15828500    0.12196900
Se   17.68728000   22.50033000   10.72115000     -0.144183    0.05744400   -0.06716100
Se   23.66424000    3.23391000    2.27010000     -0.172263    1.26629200   -0.91057400
Se   23.65784000    4.67798000   11.53484000     -0.704806   -0.24553500   -1.05229600
Se   21.62776000    5.90353000    2.52561000      0.095018   -0.36914000    0.47095200
Se   21.15061000   11.97294000   12.05117000     -0.369652   -0.70219200    0.51532500
Se   22.47793000   14.44824000    2.16598000     -0.384235   -0.08936000    0.02047600
Se   20.74797000   15.73252000   11.76880000      0.280850   -0.24906000    0.53149400
Se   23.23942000   22.69133000    2.65911000     -1.241737   -1.36490400   -1.13524200
Se   21.46147000   23.14307000   15.86591000      0.529445    0.20345600   -1.52971800
Se    4.67356000    5.17734000    9.83914000     -2.650286   -2.04138800   -3.98117500
Se    4.80785000    5.55071000   18.09364000      0.373949    0.33891300    0.58469000
Se    4.23543000   11.32503000    7.68364000     -0.370953   -0.39917000    0.02286700
Se    3.52960000    7.56389000   15.13400000      0.800574   -0.25660800    0.59446600
Se    5.32292000   20.05211000    6.16035000      0.873402    0.01069700   -0.08356800
Se   22.52504000   15.52642000   19.18786000      0.299643   -0.05145800   -0.23633900
Se    0.73490000   21.87650000   10.98192000     -0.155831    0.00649400   -0.28538400
Se    2.69302000   20.76440000   17.15224000      0.264835    0.24698900    0.85370700
Se    7.88972000    4.28931000    7.59650000     -0.218214   -0.63702600   -0.39697800
Se    6.26208000    4.68760000    0.28561000     -0.660294    0.65978900   -0.24149700
Se    7.61384000   10.42405000    6.94602000     -1.072123   -0.32556500    1.74316200
Se    3.33058000   10.11997000   18.67991000      0.114581    0.21485100    0.21598200
Se    6.55914000   17.37802000    8.49629000     -0.554164    0.05581600    0.80031800
Se    6.44477000   15.84763000   18.12131000     -0.466572    1.33596900   -0.94579800
Se    9.28935000   19.81485000    8.46155000      0.107612   -0.91817000   -0.50391500
Se    8.71454000    2.13756000    0.16525000      0.451143   -0.32583500    0.35174600
Se   13.90366000    2.16546000    8.67685000     -0.527804    0.14320100    1.20542500
Se    8.37114000    4.90218000   18.57823000      0.235150   -0.33152200    0.75214800
Se   10.51405000    6.04975000    8.86739000      1.211886    0.55761800    0.14074000
Se   16.69986000   12.78638000   16.50147000     -0.301102    0.36585800   -0.19069500
Se   13.49803000   17.50377000    7.38796000      0.017886   -0.51138500    0.60248100
Se   14.80657000   16.20076000   17.25916000      0.771986    0.92471300    0.20597700
Se   15.98376000   22.97941000    7.44234000     -0.742178   -0.09438800   -0.02872900
Se   17.86751000    1.45703000   17.14309000     -1.564971    0.59537700   -1.39561300
Se   16.60336000    3.68263000   11.40909000      0.265756    0.13156600    0.40223700
Se   21.11733000    3.53035000   17.79728000     -0.136144   -0.01879400   -0.61965600
Se   18.15424000    9.61531000   12.36602000     -0.904159   -0.69687400   -0.45479800
Se   21.00200000   10.50800000   15.39998000     -0.219720   -0.30479100    0.42450800
Se   15.93594000   17.15500000   10.59282000     -0.942964    0.67453800    0.13906600
Se   19.67934000   13.57878000   19.12470000      0.721131   -0.21782600    0.17214000
Se   18.99077000   22.43366000    7.70923000     -0.560427    0.82658600    0.64886500
Se   18.82558000   19.24519000    1.87161000      0.751729    0.37163800   -0.22964300
Se    5.82684000    0.27648000    8.50178000      0.583936   -0.56223900    0.77819600
Se    3.31656000    2.74107000   19.82086000     -0.222999    0.05137300   -0.46742100
Se    7.43967000    6.90381000    9.77307000      0.458650    0.97335800    0.62339000
Se    4.37630000    8.43645000    0.09221000      0.932052    0.36093500    0.55848400
Se    4.13684000   16.74769000    5.88756000      0.359731    0.17640700   -0.03460600
Se    7.00550000   12.30548000   16.92366000     -0.733308    0.21615900   -0.31493400
Se    2.69428000   19.29900000    8.94892000      0.879359   -1.33751900    1.77176600
Se    0.70577000   18.92975000    0.43467000     -0.128460   -0.36654500    0.79800800
Se    9.14944000    0.50748000    7.01593000     -0.483847   -2.20000700    0.42448300
Se   12.38648000    4.17883000    1.39363000     -0.207171    1.21467600   -0.14774600
Se   11.32235000    2.89471000    9.14351000     -0.361235   -0.74829700   -0.19930000
Se    8.62414000    7.97320000    0.63438000     -0.027109   -0.79928400   -0.24524100
Se   11.33989000   13.11168000    7.84894000     -0.452156    0.57208300    0.48380100
Se    9.58859000   14.86017000   19.63927000     -0.070824   -0.19511000    0.89716200
Se   13.52840000   22.40618000   10.67169000     -0.637582   -0.23867800    0.20833300
Se   12.10582000   14.76345000   16.49734000     -1.082577   -2.19678600    1.34148400
Se   18.00390000    2.22442000    8.08638000      0.285387   -2.81574300   -0.63602000
Se   18.45432000    5.29566000    1.22270000     -1.555608    0.37447200    0.15986500
Se   16.12649000    7.38127000    7.77928000      0.681823    0.11725800    0.39434800
Se   15.28933000    9.76928000   16.85600000      0.749457   -0.23624700   -0.06993500
Se   14.95532000   12.50857000    8.76414000      0.479937   -0.12532300   -1.36715300
Se   16.35161000   12.03782000    0.10992000      0.659456    0.47237000    0.30642600
Se   14.91070000   18.60896000    4.76401000     -0.151440    1.21506000   -0.32506200
Se   19.61831000   20.70632000   18.40427000      0.439087    0.32567900    0.03776900
Se   21.83445000    1.79511000    8.56067000     -0.373368   -0.33251100   -0.37628900
Se    0.27297000    0.99341000   15.99947000      0.008174   -0.25763100   -0.93831600
Se   20.98435000    6.78858000    9.57740000      0.516237   -0.00857200   -0.04969400
Se   22.71073000    6.84111000   17.61239000      0.518487   -0.46369900   -0.66672700
Se   23.64176000   11.13906000    8.42664000      0.502531    0.11806700   -0.05176300
Se   21.44788000    8.47922000   18.95710000      0.259585   -0.49902500   -0.73246300
Se   21.55095000   18.25826000    8.78743000     -0.440513    2.14281600   -0.90477600
Se   19.89104000   16.30529000   16.91161000      0.611268    0.27516100   -0.82223000
Se    1.11382000   23.51292000    9.22805000      0.312436    0.08176400    0.30632300
Se    2.44508000   23.29346000   12.94548000      0.072164   -0.10734100   -0.22131900
Se    2.28193000    7.89896000    7.47867000      0.207781    0.85336300    1.42274600
Se    1.99014000    8.39447000   17.55215000     -0.503510    0.20457900   -0.09076500
Se    1.09987000   15.64194000    7.90415000     -0.269385   -0.33429200    0.40712300
Se    1.79793000   12.63395000   17.63660000     -0.343107    0.37534100    0.29228500
Se    2.50912000   20.45040000    7.06470000     -0.479479    0.65377500   -2.67765900
Se   23.51873000   18.96311000   16.72939000     -0.806019    0.48153400   -0.65325100
Se    6.16194000   23.28386000    4.42127000      0.178170   -0.67840700    0.79485700
Se    6.36596000    1.43109000   17.65222000     -0.467428    0.30882900   -0.56254700
Se   10.42912000    7.27759000    5.52265000     -1.081464   -0.45523100    0.12014800
Se    5.82878000    8.52813000   15.91238000     -0.651432   -1.49162900    0.29175100
Se    7.13443000   14.03079000    8.51173000     -1.819916   -0.56158400    0.79872300
Se    8.43992000   18.19082000   12.92096000     -0.174069    1.33892200   -0.17612600
Se    7.70439000   16.68658000    3.24855000     -0.068137    1.03856500    1.23850700
Se    8.98882000   17.00027000   15.69115000      0.319641   -0.26453900    0.28910500
Se   14.31100000   22.02881000    5.69105000      0.782395   -0.04751700    0.27133700
Se   14.86094000   23.11185000   16.18389000      0.069326    0.40399900   -0.70954600
Se   12.74406000    9.04454000    4.96727000      0.367955   -0.34906000   -0.17989700
Se   10.38966000    7.75882000   13.45087000      0.787364   -0.02737000   -0.06262800
Se   14.31784000   11.91840000    4.92164000     -0.350013    1.07364000    0.47251100
Se   14.82879000   15.40012000   13.75429000      0.453817   -0.31406000    0.36953400
Se   12.57282000   19.29739000    3.82016000      0.608105    0.03010400    0.36679200
Se   15.33940000   20.12033000   18.69939000      0.744424    1.05656600    0.35246200
Se   17.79250000    2.07118000    4.45865000      0.360883   -0.73789800   -0.11736800
Se   19.29169000    1.20083000   18.80676000      1.173279   -0.33544800    0.98039900
Se   19.21789000    6.70325000    5.94994000      0.481723    0.73326600    0.45122400
Se   19.26566000    6.92591000   15.96721000     -1.738007    0.88061800   -0.47137500
Se   20.28964000   12.03906000    5.50965000     -0.624564    0.36613200   -0.37341900
Se   17.43087000   13.54051000   12.78581000      0.590433    0.40456300    0.38697300
Se   19.46613000   18.40699000    5.15293000     -0.085955    0.05309600    0.32158300
Se   20.71121000   20.65587000   14.41748000      0.469921   -0.57559600    0.08051300
Se    5.78500000    6.85480000    6.73553000      0.177471   -0.68257700   -1.45356300
Se    2.42088000    2.63828000   15.65369000     -0.600405   -0.77107600    0.02689200
Se    3.59538000    9.55766000    4.02749000      0.781894   -0.80444900   -0.81984200
Se    4.21830000   11.51550000   13.45100000     -0.319383   -0.11527200    0.65242500
Se    4.18409000   14.43082000    5.29185000      0.906657    0.33619300   -0.05130200
Se    2.55610000   16.66602000   18.03602000      0.980783   -0.13982200   -0.00690200
Se    1.59101000   22.65036000    6.14891000     -0.254265   -0.25467000   -0.65855600
Se    2.49219000   19.42517000   11.83005000      0.293739   -0.29989400    0.47738100
Se   12.60492000    1.30276000    5.34198000     -0.805464    0.23348000   -0.02488500
Se    8.75959000    4.47141000   16.36770000      0.005076    0.80332900   -0.84051200
Se   11.68462000   10.84429000    7.32957000     -0.939140   -0.13055700   -0.51742200
Se   10.70527000   11.78757000   16.39491000     -0.155392    0.39932000    0.34727000
Se    9.73869000   15.98024000   10.71871000      0.723461   -0.47859500   -0.61589900
Se   11.78786000   19.90843000   19.15342000      0.532566   -1.43380700   -0.34508500
Se   10.38494000   22.40930000    4.01721000     -0.449141    0.05982300   -0.15093000
Se    8.24961000   19.84265000   17.84056000      0.365087    0.13557600    0.64108200
Se   13.48208000    4.59812000    5.14882000      0.982326    0.01977600   -0.52516500
Se   14.93688000    6.30677000   19.01815000     -0.809369   -0.70080400   -0.14276100
Se   17.45591000    9.61852000    6.46493000     -0.322933   -0.50455800   -0.46387700
Se   17.39958000    7.24435000   13.48223000     -0.130057    0.99241700   -0.46892800
Se   17.54341000   13.16790000    5.81911000      1.209402    1.41042700   -0.36049100
Se   12.80002000   18.71505000   15.27325000      0.373654   -0.56689800    0.26697800
Se   16.17816000   23.54051000    4.51519000     -0.508396    0.06426300   -0.94237700
Se   16.92949000    3.61315000   13.78386000      0.205211    0.07781100    0.34303100
Se   21.62724000    3.91425000    7.49414000      0.079286    0.33838100   -0.30255400
Se   22.32295000    4.78206000   14.30179000     -0.788820    0.03980000    1.09712400
Se   18.16485000   11.02650000    9.86712000      0.178594    0.76520800    0.18713500
Se   21.98925000   13.73589000   15.87439000      0.550264    0.00570100   -0.25357300
Se   20.01565000   15.37262000    8.39827000     -2.906562   -1.50351900   -1.55139400
Se   22.90700000   16.20233000   15.90991000     -0.085669    0.27986800   -0.59581100
Se   21.27030000   22.22782000    8.44743000      0.383168    0.14213200   -0.04028400
Se   22.25571000    0.19441000   19.35273000      0.506576    0.00414500    0.70179200
Se    4.06397000    2.82270000    6.48196000      0.519647   -0.28300400    1.00126300
Se    5.86618000   23.44499000   15.94273000     -0.415839    0.50306800   -0.48388800
Se    3.36273000    4.96570000    3.58864000      0.118488    0.97285800   -0.82584600
Se    4.32107000    8.56202000   11.44760000     -0.680121    0.09365900    0.38667200
Se    1.01249000   11.24937000    2.56592000      0.556917   -0.14847800    0.25884100
Se    4.29623000   14.75664000   15.32858000      0.342349   -0.21716800   -0.14277600
Se    4.60106000   18.10828000    0.82316000     -0.108381    0.48040500    0.85647000
Se    3.89578000   17.77213000   13.16041000      0.028541    1.00641000    0.19791300
Se    8.69875000    0.32542000    2.74998000      0.620303    0.41628700    0.13496300
Se   10.72188000    1.74512000   14.57925000      0.439209    0.13165000   -0.08378300
Se   10.71865000    9.75980000    2.93727000     -0.296800    0.60853900   -0.42672400
Se    8.68504000    8.75426000   17.10274000      0.139828    0.13937400   -0.74280000
Se    8.54914000   13.36225000    4.97468000      0.166480    0.29030400    0.40272100
Se   11.46362000   10.80458000   13.87197000      0.275766   -0.61509100    0.55814900
Se    9.36138000   19.81230000    1.63003000     -0.353253   -0.88211500    0.93666500
Se   10.03191000   22.28359000   15.32196000     -0.151074    0.12045000    0.59585400
Se   17.82745000    4.31032000    8.70681000     -0.651600    2.34979500    0.60202600
Se   15.11659000    1.70953000   16.75059000     -0.221459   -0.30154700   -0.09189200
Se   16.72421000    7.09522000    3.84138000      0.057714    0.10562300    0.05360700
Se   13.31259000    7.75398000   14.36382000     -0.576240   -0.80614700   -0.18493800
Se   17.33660000   11.94579000    2.40191000     -0.140179    0.13882000   -0.54536900
Se   17.67420000   18.78836000   15.69554000      0.195110    0.10060500   -0.32438100
Se   15.21491000   16.38450000    4.05630000      0.252779   -0.47585200   -0.87165200
Se   16.92963000   20.41988000   14.10405000     -0.705299   -0.16690200    0.44291300
Se   22.16195000    1.75096000    4.81058000     -0.213037    0.00652600    0.97457000
Se   22.31067000    1.09899000   12.81165000     -0.510587    0.27119300   -0.78303600
Se    0.11246000    7.87726000    5.61047000     -0.134361    1.00653000   -0.71287300
Se   21.18278000    7.50988000   12.66493000      0.491781    0.62164700    0.29709300
Se    0.37906000   15.98608000    4.50476000      0.102505    0.45731400   -0.08183500
Se    0.36806000   12.66568000   15.19899000      0.247312    0.10467700   -0.02705700
Se   22.29227000   19.67648000    4.36212000      0.108898   -0.50740600   -0.03018300
Se   21.42096000   21.17880000   10.62536000      0.148870   -0.11174200    0.49508500
Se    2.49693000    4.52946000    7.27489000      0.189625    0.56703700    0.68254500
Se    1.93783000    3.42435000   13.08977000      0.259003    0.66326000   -0.34492600
Se   22.49776000   11.58099000    4.80750000      0.868897   -0.28257700    0.03359400
Se    0.42614000    9.02381000   14.46348000      1.256405   -0.03594700   -0.39257900
Se    1.69413000   14.52552000    1.70281000     -0.853101    0.55921300   -0.60428000
Se    0.87377000   16.80009000   14.13158000     -0.337032   -0.95807300    0.36013800
Se    2.62962000   21.55440000    1.75404000      1.052745   -0.60134700    0.59225600
Se    5.36727000   18.11092000   17.16277000      0.013279   -0.57749800    0.23965200
Se   10.52575000    3.67180000    4.60666000      0.142528    0.80769300    1.15204800
Se    7.41213000    2.62930000   12.99286000     -0.039224    0.02188000    0.12992800
Se    7.14114000    9.72681000    3.62848000      0.010002    0.08609100    0.22880200
Se    8.10044000   10.94061000   13.48758000     -0.250207   -0.85307300    0.48344300
Se    7.63203000   15.19092000    1.55746000     -0.318226   -0.46824600   -0.58066200
Se    9.38112000   15.15074000   14.29452000     -0.285027   -0.30902200   -0.51410400
Se    7.67695000   21.98800000    9.14096000     -0.865090   -0.02429400   -1.02538800
Se    5.96183000   20.61765000   14.59606000      0.158353    0.20161300    0.24045200
Se   15.35406000    1.05453000    2.45784000     -0.458876   -0.55785900    0.40590300
Se   10.23692000    5.27139000   13.67429000      0.891673   -0.01120600    1.10993000
Se   14.12601000    9.98144000    0.73970000     -0.503129   -1.28684600    0.21828800
Se   15.54801000   10.93411000   13.62784000     -0.371952   -0.67850000   -0.07509700
Se   10.07855000   16.28658000    6.96550000     -0.228149   -0.11107500   -0.62277000
Se   13.17147000   16.88863000   11.54314000      0.810454    0.11835900   -0.08268600
Se   14.36590000   21.16398000    2.52333000      0.463057    0.19088400   -0.19241300
Se   15.82349000   23.29350000   13.88173000     -0.222527   -0.17158100    0.19937700
Se   18.58336000    5.78594000   18.84234000      0.265426    0.32896300   -0.56754100
Se   14.90649000    5.41930000    8.65415000      0.766125   -0.52486700    0.32436400
Se   20.50193000    7.90894000    3.00124000     -0.120177   -0.39766200   -0.19122900
Se    0.34783000   12.79178000   12.61787000     -0.077084   -0.02032600   -0.50557500
Se   20.03115000   16.13872000    4.08998000     -0.262146   -0.63008100   -0.69876400
Se   18.70376000   17.21050000   14.14215000      0.336230    0.03919600   -1.23239400
Se   19.26693000   22.26888000    4.83826000      0.162592   -0.81814900   -0.55969200
Se   18.83975000    0.40893000   13.87129000     -0.265794   -0.50326700    0.18131600
