384
23.69824000 23.69824000 19.89960000
Ge    5.58896000    6.23159000   11.50425000      1.132269    1.43951300    2.92919000
Ge    5.85615000    5.64826000    3.50384000      0.567665   -1.02282500    0.00418800
Ge    1.78655000   12.42471000    7.10489000      0.556785   -0.05618400    0.43371100
Ge    9.29350000   14.41078000   17.14284000     -0.044321    0.35521000   -1.21704500
Ge    5.05841000   15.07335000   10.31302000     -0.492271   -0.24394800   -0.15968400
Ge    9.60214000   18.18816000   19.47937000      0.266605    0.63044200   -0.08890700
Ge    6.76554000   23.21515000   11.17432000     -0.113233   -0.16491200   -0.13166100
Ge    5.85069000    2.21215000    0.82423000     -0.012768   -0.69566800   -1.04473900
Ge    9.65932000    5.66940000   11.33288000     -0.819190   -0.48222200   -1.75419900
Ge   11.07506000    5.61047000   19.60146000      0.432731    0.05966700    0.12929200
Ge   11.01616000    9.95047000   10.81981000      0.075311   -1.62057900   -0.72571200
Ge   13.59896000   11.65843000   18.91981000     -0.262237    0.61055600   -0.30005900
Ge   10.72993000   17.48811000    9.05360000     -0.375734    1.13432700   -0.76597600
Ge   13.51076000   15.83836000    0.55591000      0.025635    1.19415700   -0.76452800
Ge   11.32434000   23.66084000    9.23716000     -0.406271    0.65032700    0.27687700
Ge   16.05971000   22.97631000   19.00933000     -0.637473   -0.38596800   -0.10827000
Ge   18.69789000    4.90361000   11.20139000     -0.097208   -0.18060400    0.29103100
Ge   19.78821000    9.09230000   17.05101000     -0.258911    0.53096800    0.38480000
Ge   20.26805000   12.55468000    9.80395000     -0.610619   -0.35843600    0.63507900
Ge   18.24277000   11.77124000   18.30547000     -0.415721   -0.32511900   -0.41473000
Ge   15.12425000   19.06055000    8.83042000     -0.002068   -0.82974300    0.42844900
Ge   19.07928000   16.28195000   19.00486000     -1.173842   -0.47653700    1.88766400
Ge   19.88710000    1.70114000   12.24803000      0.260624    0.35435300   -0.34136900
Ge   19.96201000    3.77519000    2.28880000      0.456262    0.32923000    0.40868700
Ge   23.61419000    5.69396000    9.09798000     -0.279372    0.22663900    0.39388000
Ge    2.12589000    3.53960000    5.01526000     -1.537750   -0.73174300   -1.04485700
Ge    2.16357000    9.98599000    9.52345000     -0.251076   -0.56516200   -0.26380800
Ge    0.13694000    9.86431000   19.03842000     -0.203228   -0.56942600    0.75253500
Ge   21.99333000   16.07169000    9.05553000      2.382076   -0.91872500    1.07184000
Ge    1.19496000   14.76767000   19.01745000      0.233570   -1.48484400    1.02668800
Ge   19.21211000    0.69931000    9.74166000      0.086770   -0.40379100    0.30955200
Ge    1.00532000   21.36312000    0.04868000     -0.979065    0.16980500   -1.61994100
Ge    4.70309000    7.90445000    8.56316000     -0.799277    0.22304900    1.14490200
Ge    2.33221000    6.99263000   19.69002000      0.172607   -1.09239000   -0.35679500
Ge    1.82497000   10.09348000    5.46002000     -0.334355   -0.28156100    0.31445500
Ge    4.34368000   12.40908000   16.04974000      0.023398   -0.08903000    0.06025000
Ge    5.68107000   18.52206000    3.63411000      0.199763   -0.30723500   -0.96408900
Ge    0.37876000   17.50296000   18.50390000     -0.995757    0.52025700   -0.68844500
Ge    5.75327000   19.94466000    8.75212000     -0.122845    0.08597200    0.35573200
Ge    3.84533000   23.24704000   17.92232000     -0.126240   -0.57517600   -0.34050600
Ge   10.05388000    2.50128000    6.88715000      0.539996    1.81320400    0.09548500
Ge    7.05575000    8.95504000   18.94667000     -0.469754    0.58031200   -0.85041700
Ge    6.18668000   12.69837000    6.39105000      0.130489   -0.26591800    0.24608300
Ge    8.49763000   10.07456000    1.70122000      0.604151   -0.57133300    1.10258900
Ge    7.74259000   18.38518000    6.61372000      1.024241    0.47084200    0.29259100
Ge    4.38786000   19.95193000   18.81359000     -0.588581   -1.78652500   -0.88683400
Ge   11.48603000   22.86612000    6.31411000     -0.396431    0.47249900   -0.59807400
Ge   10.32546000    1.31737000   17.52397000     -1.163173    0.27246500    0.21452200
Ge   12.70474000    6.73745000    5.89263000      0.723955    0.29434000    1.03182100
Ge   14.05244000    8.42813000   18.42577000     -1.225300    0.34765300    0.31406100
Ge   16.33849000   11.63889000    6.95807000     -1.291554   -0.28211100    0.67621200
Ge   16.68727000   15.46828000   15.61267000     -0.702904   -0.55013100    0.43779100
Ge   12.65919000   17.06384000    4.71519000     -0.826029   -1.11763600    0.39195200
Ge   14.98704000   18.88196000   16.63852000     -0.185827   -1.07944800   -0.32270700
Ge   15.20732000    0.32460000   10.11919000      0.968218    0.65308300   -0.48922200
Ge   16.37900000    4.32488000   18.39416000      0.747908    0.17473200   -0.33589300
Ge   19.76594000    5.58611000    7.98305000      0.481430   -0.39727700   -1.21128800
Ge   20.97862000    5.52786000   16.37098000      3.427324   -1.13986500    0.55914700
Ge   19.72861000    8.59280000    8.00726000     -0.035475    0.16170300   -0.70296600
Ge   22.17333000   12.60909000   18.59848000     -0.506417    0.85610500   -0.19712900
Ge   19.41646000   17.58598000    7.50820000      0.255494    0.50315300    0.19716100
Ge   20.82144000   18.87925000   16.57967000      0.200868    0.61856800   -0.02100200
Ge   19.73690000    0.86246000    5.57632000     -0.083005    0.51169300    0.50417300
Ge   20.33125000   21.38330000    0.90700000     -1.279940   -0.77298600    0.31387800
Ge    5.97800000    3.16675000    9.08622000      1.047662   -0.03280000   -0.01189000
Ge    4.34832000    3.47843000   17.07831000      0.590992   -0.97624100    1.01943500
Ge    3.47966000    6.78707000    5.60582000      0.022221    0.02862100   -0.64739400
Ge    2.93922000    9.34582000   13.65513000     -0.608728   -0.09128300   -1.00323900
Ge    1.79026000   17.18097000    6.19302000     -0.382266    0.95945900   -0.62352100
Ge    2.00745000   15.25425000   15.93556000     -0.552939   -0.75616800   -0.54260100
Ge    0.36173000   19.88823000    9.25452000     -1.136982    0.14703800    0.70174900
Ge    2.85146000   20.96544000   13.78975000      0.792641   -0.11055300    1.05919100
Ge    9.46013000    2.96792000    2.50996000     -0.766288   -0.41321200   -0.92980400
Ge    8.43606000    2.21034000   15.54720000     -0.428246   -1.11636000   -0.15675200
Ge    9.27723000   10.92399000    5.35326000      0.816372    0.42512900   -1.44621000
Ge    7.35680000   10.34914000   15.69504000      0.665047   -0.33040000   -0.58773300
Ge    9.04271000   14.04720000    7.36472000      1.789689    0.21304000   -1.54901400
Ge   14.13369000   11.75214000   15.65607000      0.542760    0.29390000    0.02539700
Ge    7.74522000   21.44433000    5.38268000     -0.052556    0.30076400   -0.93810600
Ge    8.66602000   20.20236000   15.40975000     -0.454975   -0.61009800   -0.03758300
Ge   14.70568000    1.89436000    6.48417000      0.482544   -0.01503000   -0.60266800
Ge   12.70569000    2.49050000   15.87426000      0.034494    0.28475600    0.15493700
Ge   15.05809000    9.80060000    4.31009000      0.337277   -0.82130700    0.20503800
Ge   15.60634000    8.43769000   14.56330000      0.635869    0.43434500    0.37130300
Ge   15.95603000   13.52587000    3.92916000      0.581143    0.12664100   -0.35853300
Ge   13.17355000   16.22254000   15.22272000      0.866980    1.93937000   -0.14635200
Ge   13.92357000   19.44445000    0.63400000     -0.260813   -0.57442700    0.52057100
Ge    9.98540000   21.31857000   19.56808000     -1.401810    1.11262000   -0.14452600
Ge   23.05071000    4.11898000    4.68080000      0.295390    0.12923900   -0.77178500
Ge   21.16228000    2.61343000   15.10966000      0.382939    0.19788000    0.27504700
Ge   22.32379000    9.78058000    6.63853000     -0.083241   -0.26755100   -0.08041300
Ge   20.33953000    9.71491000   13.28123000      0.688540    0.01479500   -0.91268200
Ge   21.85322000   16.83861000    2.47394000      0.553770   -0.29271200    1.30749200
Ge   19.71373000   14.73007000   13.84009000     -0.232048   -0.54276100   -0.08430400
Ge   20.84845000   20.42655000    6.14505000     -0.706842    0.19347700    0.33883500
Ge   20.60884000   22.95843000   17.93037000     -0.585095   -0.51280300    1.04455200
Ge    6.00498000    4.35201000    5.89770000      0.849565    0.57843100   -0.32415400
Ge    4.17851000    0.93309000   13.98553000      0.369906    0.27268200    1.10242400
Ge    5.33729000   11.43452000    3.36398000     -0.323902    0.27543800    0.30010400
Ge    7.99350000    8.36204000   13.08824000     -0.812804    0.10782800    0.76039800
Ge    5.38105000   15.80048000    0.31971000     -0.041752    0.67139400    1.21122500
Ge    2.82063000   13.16348000   12.05804000      0.556596    0.20162800    0.22472300
Ge    4.76247000   22.68167000    6.59731000     -0.362245   -0.07355400   -1.01206600
Ge    6.91354000   20.36224000   12.39671000      0.748680    0.12784300    0.99732000
Ge   15.57287000    4.90121000    3.28138000     -0.141263    0.20978800   -0.06558200
Ge   13.45365000   23.36332000   13.06971000      0.159718    0.74761700   -0.14711700
Ge   11.60787000    9.64543000    0.57161000     -0.498244   -0.27344200   -0.51863400
Ge   13.49328000    9.68158000   12.72602000     -0.239461    0.27751000   -0.52058100
Ge   11.07573000   13.47686000    2.01391000      0.260315    1.06019500   -0.69280800
Ge    7.52681000   16.93009000   11.06912000      1.311599    1.38381700   -1.82209400
Ge   13.09019000   23.34481000    2.65658000      0.295013    0.23260100   -0.94377700
Ge   11.10808000   22.08304000   13.18896000     -0.489494   -0.10888500   -0.94319300
Ge   23.69031000    1.87257000   18.20614000      0.145068    0.79096500    0.51643400
Ge   12.81339000    5.89481000   12.49757000     -0.328893   -0.25733300    0.77370100
Ge   17.86847000    8.80652000   19.64171000     -0.051246   -0.24296800   -0.13524200
Ge   13.17182000    6.90853000    8.62409000     -2.415781    0.56132000   -1.03441500
Ge   20.61284000   12.73840000    2.88371000     -0.559943    0.57202200   -0.02895200
Ge   16.71784000   15.86599000    8.67872000      1.086158    0.36020900    0.28965300
Ge   17.32827000   21.49293000    3.07215000     -0.272699    0.03382200   -0.20312200
Ge   18.83802000   21.40617000   12.95879000      0.322125    0.49807000   -0.39609700
Ge    0.15181000    1.14624000    3.18802000      0.372415    0.60019000    0.58645900
Ge   22.77571000    2.34212000   10.78654000      1.910384    0.63750100    0.21549700
Ge   22.85228000    9.38423000    3.17050000      0.588127   -0.40194100    0.14365300
Ge   23.18806000    9.09685000   12.31123000     -0.233047   -0.34401100   -1.03098000
Ge    1.89196000   14.06344000    4.87747000     -1.107493   -0.79043300   -0.61481300
Ge   23.36380000   15.42163000   11.59825000      0.025305    0.62960900    0.37231100
Ge    0.44029000   21.12097000    4.33297000      1.002053    0.78086200    0.11854200
Ge   20.89434000   18.44048000   12.77543000      0.639226   -0.25694000    1.01012300
Se    2.15754000    0.70300000   19.82404000      0.088773    0.06517000   -0.03009200
Se    1.74097000    1.72782000   10.48368000     -1.279567    0.02959500   -0.28624000
Se    0.49606000    7.97432000    0.99241000     -0.793137    0.97606500    0.18063900
Se    0.72061000    7.86487000   10.21826000      0.049671    0.35219000    0.55224200
Se   22.60601000   11.33901000    1.35130000      0.262112   -0.04128700   -0.18181500
Se    2.72743000   14.15124000    8.90510000     -0.460688    0.03944800    0.26298400
Se    2.13517000   19.63288000    3.25336000     -0.185740    0.88704800    0.01564700
Se   23.32570000   18.79752000   11.80504000      0.295463   -0.39592200   -0.15647400
Se    6.06263000    2.93676000    3.09351000      0.298252    0.66577700    0.79693700
Se    4.66189000    3.33715000   13.38824000      0.937158   -0.54242500   -0.41310000
Se    8.86031000    5.47349000    3.65885000      0.625520   -0.75514000    0.31863700
Se    7.55043000    9.11479000   10.86390000      0.351861    0.03448300   -1.06446500
Se    7.70384000   11.46492000   19.80866000     -0.299525    0.12602600   -0.21810600
Se    6.40782000   15.57548000   12.40743000     -0.645162   -1.50764300    1.06189700
Se    7.16247000   20.59233000    2.89584000      0.439626    0.01427400   -0.21393500
Se    9.72520000   20.44193000   11.75860000     -0.583773    0.28547400    0.52124300
Se   13.66553000    0.16324000   19.83220000     -0.060707   -0.40204300    0.02514100
Se   13.26373000    2.10688000   11.96478000      0.240184    0.14555300    0.69457500
Se   11.78721000    7.91067000   17.80939000      0.273933    0.17721800    0.44753700
Se    9.83525000    9.43384000    8.15165000      0.280573    0.18483800    0.53274100
Se   13.38178000   13.43185000    0.80059000     -0.235715   -0.88334500    1.02689000
Se   13.61342000    9.18647000    8.93294000     -0.354090    0.19036900    0.71212500
Se   15.65884000   16.63186000    1.58018000     -0.089809   -0.39012700    0.67034600
Se   12.35845000   18.74685000   10.60518000     -0.508930    0.50506900   -0.15816700
Se   18.19695000    4.40491000    4.26112000      0.034820    0.13761200   -0.20693900
Se   13.97674000    3.80390000   13.79145000     -0.805879   -0.30853900   -0.63454000
Se   14.73806000    5.56130000   16.52307000      0.937813   -0.26454100    0.91301000
Se   19.12461000    4.62899000   13.95612000      0.529818   -0.81437300   -0.35251200
Se   19.95003000    9.67594000    0.73004000     -0.791170    0.34339700    0.76338200
Se   17.31932000   18.88253000    7.50843000     -0.183978   -0.27907100    0.26130400
Se   20.63222000   17.77284000    0.64829000     -0.836685    0.84945300   -0.58795400
Se   19.67566000   19.46781000   11.00643000     -1.267377    0.72952700   -0.40729600
Se    2.45908000    1.17957000    3.72659000     -0.024285   -0.24417400    0.68460200
Se    2.65886000    5.57184000   12.26580000     -0.387751   -0.19985700    0.61675900
Se    5.26472000   11.76370000    0.76682000      0.456897   -0.07594600    0.04500500
Se    4.53369000   12.38909000   10.34931000     -0.512532    0.18703700   -0.03082600
Se    3.93233000   14.09300000    1.34364000      0.510776   -0.34098800    0.02793600
Se    3.14552000   15.84420000   12.02945000     -0.657116   -0.49781900   -0.85875400
Se    5.54493000   21.85127000   19.16844000      0.967936    1.17935500    0.46964900
Se    4.92548000   20.90608000   11.27043000     -0.555262   -0.13356800   -0.11452200
Se   12.94208000    6.65294000    1.71317000     -0.268646   -1.12740800   -0.13571200
Se    8.86228000    3.07808000   10.76736000     -0.406993    0.40372500    0.38879900
Se   10.54238000   12.38989000   18.66788000      0.737273   -0.89767800    0.51797700
Se   11.18633000   12.06509000   11.84006000     -0.040664    1.02395800   -0.04656600
Se   11.71066000   16.06989000    2.22765000     -0.181882   -0.38455600    0.66878600
Se   11.73812000   14.60037000   13.64900000     -0.798498    0.61885400    0.42108400
Se   11.69562000   23.05256000   17.70356000      0.877029    0.17981900    0.65455400
Se    9.49776000   23.30505000   11.30810000      1.322395   -0.26113100    0.23532700
Se   11.79927000    3.12362000   18.19325000      0.711313    0.44511000   -0.30864500
Se   17.79530000    8.01401000    9.51972000     -0.782387   -0.62679000    0.04064300
Se   16.57874000    8.85174000    2.19227000     -0.072401   -0.38784600    0.06494400
Se   17.44907000   13.56182000   10.47766000      0.940445   -0.73253900   -0.20638000
Se   18.91360000   14.83424000    2.28063000      0.141557   -0.13591400    0.83016700
Se   14.80470000   15.07777000    7.58706000     -1.882855   -0.32266400   -0.22030300
Se   17.88890000   22.75887000    1.00340000      0.615809   -0.05054500    0.40191000
Se   17.69500000   22.57825000   10.70358000     -0.346094   -0.09914700    0.08611200
Se   23.67674000    3.26975000    2.24332000     -0.157054    0.96532400   -0.66174400
Se   23.61028000    4.64653000   11.52578000     -0.564275   -0.09284000   -0.94346400
Se   21.66804000    5.91933000    2.53185000     -0.209537   -0.03674600    0.42597200
Se   21.14702000   12.02165000   12.11770000     -0.529816   -0.59445900    0.00798600
Se   22.45898000   14.43445000    2.20166000     -0.150259   -0.10582900   -0.03602100
Se   20.73057000   15.74095000   11.77295000      0.335459   -0.12131200    0.46799000
Se   23.22933000   22.69604000    2.64387000     -0.818011   -1.18010900   -0.63880400
Se   21.41735000   23.16145000   15.83707000      0.713687    0.22871100   -1.61716800
Se    4.63604000    5.17763000    9.79418000     -1.912883   -1.29133700   -2.80486200
Se    4.78671000    5.64019000   18.07544000      0.448604   -0.20167700    0.55951500
Se    4.19635000   11.33550000    7.64044000     -0.354642   -0.37842600   -0.02412400
Se    3.55635000    7.59128000   15.10915000      0.777977    0.03821900    0.50582900
Se    5.31478000   20.01376000    6.19571000      0.934865    0.11486300   -0.23354800
Se   22.51071000   15.48605000   19.20148000      0.472182   -0.04414100   -0.16892800
Se    0.74476000   21.89166000   11.01656000     -0.302204   -0.33878100   -0.26793900
Se    2.65732000   20.77915000   17.17697000      0.514696    0.25672600    0.97765000
Se    7.92208000    4.29256000    7.59331000     -0.421343   -0.68004800   -0.33478000
Se    6.24398000    4.66025000    0.26796000     -0.632768    0.70185600   -0.40994700
Se    7.64699000   10.43946000    6.92604000     -0.976249   -0.42244300    1.69173400
Se    3.36977000   10.09322000   18.65708000      0.276445    0.39035700    0.40915900
Se    6.58316000   17.44690000    8.51615000     -0.812337   -0.28037400    1.05769700
Se    6.40821000   15.84455000   18.19638000      0.061336    1.18337300   -1.79359000
Se    9.29982000   19.81448000    8.41920000      0.225609   -0.85188300   -0.40045000
Se    8.71317000    2.13199000    0.10420000      0.480627   -0.31635900    0.31376600
Se   13.93649000    2.20366000    8.73448000     -0.452909    0.05598500    0.80088200
Se    8.45183000    4.90031000   18.57620000     -0.070781   -0.48267300    0.44916000
Se   10.53324000    6.04973000    8.84878000      1.133049    0.55492500    0.23489500
Se   16.69971000   12.77070000   16.43195000     -0.238144    0.40324600   -0.07048900
Se   13.49162000   17.54644000    7.37429000     -0.042930   -0.53510000    0.68651400
Se   14.79603000   16.21246000   17.33583000      0.564663    0.87874600   -0.17626600
Se   15.99072000   22.95749000    7.39827000     -0.685863    0.00959100    0.17918600
Se   17.80697000    1.46019000   17.12299000     -0.708346    0.52214600   -0.48860900
Se   16.55136000    3.67489000   11.41266000      0.616976    0.29000900    0.76850200
Se   21.14254000    3.51061000   17.79168000     -0.264363    0.06145300   -0.75696400
Se   18.19643000    9.52778000   12.41440000     -1.173541   -0.78846600   -0.49010200
Se   21.00707000   10.50512000   15.33360000      0.128508    0.16558600    1.19986500
Se   15.96024000   17.16346000   10.56558000     -0.917137    0.64598100    0.03440400
Se   19.65999000   13.52525000   19.15906000      0.899996    0.13977400    0.19319300
Se   18.96566000   22.50842000    7.70691000     -0.364060    0.73444700    0.61105400
Se   18.83024000   19.22316000    1.88687000      1.000662    0.31368400   -0.41438300
Se    5.82809000    0.27288000    8.45780000      0.604020   -0.49311000    0.89029900
Se    3.38647000    2.73594000   19.82271000     -0.290011    0.23913900   -0.51796400
Se    7.44853000    6.90747000    9.82565000      0.445334    0.65676700    0.32581000
Se    4.35819000    8.42384000    0.10565000      0.814878    0.17417200    0.57771200
Se    4.14103000   16.73336000    5.88864000      0.717071    0.34132200    0.01004200
Se    7.01911000   12.26309000   16.90300000     -0.820687    1.08726200    0.20312800
Se    2.69588000   19.25656000    8.85843000      0.854592   -1.35216400    1.97569400
Se    0.69190000   18.92462000    0.36908000      0.024161   -0.12816000    1.67781700
Se    9.10869000    0.48782000    7.00087000     -0.131512   -1.68638400    0.34683700
Se   12.42225000    4.20158000    1.37078000     -0.166495    1.16327400   -0.08830300
Se   11.32258000    2.85824000    9.16520000     -0.328380   -0.77566700   -0.16333900
Se    8.54935000    7.96662000    0.61617000      0.551678   -1.03248800    0.44314200
Se   11.29158000   13.10179000    7.86670000     -0.271502    0.68705400    0.55909600
Se    9.57419000   14.82754000   19.63679000     -0.136282   -0.13520800    1.09289500
Se   13.53719000   22.42021000   10.72445000     -0.721114   -0.47627900   -0.02224200
Se   11.98597000   14.76914000   16.50704000     -0.248938   -1.54569200    0.90373200
Se   17.95470000    2.27412000    8.11052000      0.268715   -2.85820300   -0.75199000
Se   18.39068000    5.24361000    1.17901000     -1.354586    0.26904000    0.12307000
Se   16.12577000    7.38224000    7.79604000      0.600573    0.14916300    0.14805100
Se   15.27874000    9.77982000   16.91570000      0.859254   -0.02321600   -0.27970500
Se   14.93388000   12.55446000    8.76655000      0.512593   -0.07345600   -1.31328000
Se   16.37222000   12.04973000    0.10221000      0.489711    0.36691600    0.19229300
Se   14.88706000   18.60718000    4.71570000      0.000133    1.39733700   -0.20285200
Se   19.68546000   20.65601000   18.38079000      0.315745    0.52062700   -0.11381000
Se   21.82534000    1.88334000    8.50782000     -0.048886   -0.97667700    0.46568900
Se    0.27664000    0.99095000   16.00796000      0.012987   -0.13068200   -0.74688500
Se   21.01610000    6.78029000    9.59669000      0.520000    0.19585800    0.15346800
Se   22.71931000    6.85074000   17.55794000      0.338610   -0.39073000   -0.68841800
Se   23.66069000   11.09666000    8.38979000      0.503637    0.19759800    0.04283900
Se   21.43677000    8.47276000   18.92653000      0.497829   -0.49167600   -0.72610500
Se   21.54348000   18.27064000    8.75410000     -0.269787    1.77840200   -0.82558500
Se   19.94281000   16.31198000   16.92823000      0.794252    0.09044500   -0.97795900
Se    1.09087000   23.47757000    9.25991000      0.303463    0.14999400    0.09627700
Se    2.45365000   23.22290000   12.89919000      0.018009    0.38592200   -0.33306300
Se    2.26500000    7.94206000    7.42054000      0.221586    0.99138700    1.40128000
Se    2.00961000    8.44497000   17.59371000     -0.800823    0.01443600   -0.44536000
Se    1.11809000   15.70767000    7.92276000     -0.518650   -0.38335800    0.76158600
Se    1.70519000   12.62168000   17.63521000     -0.388671    0.34287500    0.33270600
Se    2.53099000   20.45366000    7.00478000     -0.577004    0.87599900   -2.58659800
Se   23.53925000   18.97721000   16.72945000     -0.855611    0.04216800   -0.34754800
Se    6.13488000   23.22997000    4.40703000      0.135084   -0.48328200    0.77065000
Se    6.34215000    1.44442000   17.63484000     -0.412045    0.29486200   -0.55747800
Se   10.45718000    7.24522000    5.53594000     -1.333781   -0.37939800   -0.05454700
Se    5.82563000    8.45894000   15.90751000     -0.222557   -0.78723400    0.13754400
Se    7.13050000   13.97093000    8.52763000     -1.189746   -0.40602700    0.39869000
Se    8.39001000   18.22918000   12.87339000      0.006201    1.24452400   -0.02519700
Se    7.66752000   16.65426000    3.27067000     -0.097226    0.86277300    1.03960600
Se    9.04214000   16.98823000   15.69535000      0.231920   -0.48614400    0.17787200
Se   14.35904000   22.05268000    5.73253000      0.617512   -0.10508200    0.11634000
Se   14.86491000   23.15554000   16.21891000     -0.058487   -0.30258500   -0.82595500
Se   12.71167000    9.06462000    4.99493000      0.753473   -0.48232600   -0.18901100
Se   10.38702000    7.77342000   13.41288000      0.819776   -0.16701000   -0.05981600
Se   14.32840000   12.01353000    4.96622000     -0.437056    0.21159100    0.47157300
Se   14.86567000   15.38576000   13.77976000      0.479131   -0.29748600    0.16904900
Se   12.55564000   19.29184000    3.82487000      0.507149    0.21116500    0.21737900
Se   15.39566000   20.13509000   18.72594000      0.506139    0.79765000    0.04544400
Se   17.76090000    2.08620000    4.44909000      0.363743   -0.87532200    0.06776100
Se   19.30277000    1.17912000   18.83525000      0.384542   -0.02138500    0.14045700
Se   19.23602000    6.70781000    5.87793000      0.581538    0.44224200    1.18970400
Se   19.28929000    6.91047000   15.99615000     -1.859991    1.10063000   -0.43017200
Se   20.25011000   12.05227000    5.50488000     -0.334727    0.26036400   -0.48390500
Se   17.38533000   13.48497000   12.76284000      0.632474    0.57790000    0.66369500
Se   19.49982000   18.40551000    5.18890000     -0.214417    0.13896700   -0.01689800
Se   20.74306000   20.70451000   14.46677000      0.285584   -0.62012400    0.00357800
Se    5.74578000    6.87463000    6.71002000      0.508840   -0.72038000   -1.39052200
Se    2.48003000    2.66167000   15.63477000     -0.565590   -0.86151600   -0.00589500
Se    3.60179000    9.55874000    3.97780000      0.272269   -0.47487100   -0.48207200
Se    4.22050000   11.51708000   13.46104000     -0.160896   -0.02860400    0.62219700
Se    4.21917000   14.43703000    5.29843000      0.795983    0.08099700   -0.10567200
Se    2.58208000   16.60335000   18.06764000      0.714251    0.17233900   -0.06121500
Se    1.57626000   22.67495000    6.09775000     -0.228716   -0.32122800   -0.57340400
Se    2.48195000   19.40594000   11.87677000      0.371662   -0.32124500    0.35381700
Se   12.59318000    1.27515000    5.33078000     -0.826356    0.13998200    0.10597700
Se    8.73824000    4.44402000   16.31434000      0.087190    1.49008500   -0.21207700
Se   11.62456000   10.85050000    7.31434000     -0.779649   -0.23341400   -0.62125200
Se   10.70094000   11.79895000   16.39663000     -0.105501    0.22694300   -0.18572700
Se    9.71148000   16.02531000   10.66355000      0.519890   -0.89825500   -0.09021200
Se   11.81941000   19.90651000   19.15951000      0.204219   -1.30674900   -0.33219300
Se   10.38200000   22.41321000    3.97038000     -0.548933    0.18580500    0.04202500
Se    8.25814000   19.85488000   17.87772000      0.435166    0.21608800    0.47098300
Se   13.47684000    4.60253000    5.08761000      1.110408   -0.04927700   -0.53557800
Se   14.91289000    6.30438000   18.96224000     -0.786963   -0.85998500    0.11102200
Se   17.47325000    9.61763000    6.46544000     -0.589404   -0.12060200   -0.37472600
Se   17.39059000    7.19275000   13.50259000     -0.130967    0.99679000   -0.47725700
Se   17.61981000   13.15752000    5.80182000      0.626557    1.27531200   -0.47214700
Se   12.85181000   18.71740000   15.30181000      0.032960   -0.52837900    0.07526200
Se   16.18518000   23.53512000    4.48569000     -0.562114    0.04166500   -1.05230200
Se   17.01228000    3.67090000   13.81895000     -0.553822   -0.18042300    0.15857000
Se   21.65655000    3.92758000    7.50798000     -0.073043    1.08271400   -0.59682000
Se   22.32365000    4.81327000   14.27056000     -0.731457   -0.07177200    1.04169000
Se   18.13187000   10.98213000    9.91396000      0.198558    0.82385000    0.04003700
Se   21.95022000   13.76106000   15.89117000      0.638919   -0.15625800   -0.45886700
Se   19.97072000   15.39253000    8.36083000     -2.429934   -1.50881600   -1.37591500
Se   22.88969000   16.16925000   15.85616000     -0.375100    0.35690900   -0.09576500
Se   21.26780000   22.27866000    8.47783000      0.265738    0.24653600   -0.34948600
Se   22.24061000    0.22947000   19.33030000      0.300980   -0.30924700    0.93816700
Se    4.06286000    2.82871000    6.51153000      0.731440   -0.30619200    1.01466400
Se    5.83016000   23.44743000   15.94584000     -0.278508    0.43351500   -0.56282300
Se    3.36524000    4.96089000    3.55916000      0.070128    0.76045100   -0.63601300
Se    4.28282000    8.58730000   11.43537000     -0.576037    0.04153700    0.29349100
Se    1.01521000   11.24820000    2.57299000      0.277791   -0.20609200    0.08670600
Se    4.27580000   14.73069000   15.26986000      0.594076    0.02994900   -0.17382400
Se    4.59830000   18.04321000    0.85817000     -0.145272    0.34575900    0.84143300
Se    3.92397000   17.73694000   13.18351000     -0.203011    0.82306900   -0.01981200
Se    8.70004000    0.37679000    2.74191000      0.649089    0.28447300    0.07108700
Se   10.70874000    1.74919000   14.57348000      0.533108    0.18827600   -0.08778700
Se   10.70891000    9.74698000    2.89648000     -0.244044    0.54096300   -0.36950500
Se    8.68939000    8.74677000   17.06440000     -0.115764    0.25785900   -0.59818000
Se    8.53784000   13.36160000    4.99046000      0.253927    0.30660300    0.24954500
Se   11.45119000   10.77186000   13.83308000      0.237843   -0.18330000   -0.15592300
Se    9.33467000   19.80772000    1.67070000     -0.219409   -0.48479300    0.40681300
Se    9.99352000   22.29080000   15.25916000     -0.339772    0.07515000    0.90267200
Se   17.80043000    4.35724000    8.74624000     -0.457958    2.38142400    0.52505500
Se   15.13243000    1.69231000   16.72113000     -0.165976    0.35360600    0.11147100
Se   16.73725000    7.11876000    3.86251000      0.043755    0.15414000   -0.03186700
Se   13.32069000    7.75742000   14.42872000     -0.573126   -0.60034400   -0.35279800
Se   17.35950000   11.93152000    2.36305000     -0.286334    0.28342700   -0.42297700
Se   17.70455000   18.71343000   15.68777000     -0.262451    0.67355900   -0.19948200
Se   15.21918000   16.38520000    4.04006000      0.353329   -0.53981800   -0.99397000
Se   16.89559000   20.42551000   14.08119000     -0.421846   -0.33664900    0.72433600
Se   22.16764000    1.78333000    4.84266000      0.175676   -0.39110500    0.54978300
Se   22.33267000    1.09546000   12.78449000     -0.573955    0.00492300   -0.26721200
Se    0.11661000    7.84411000    5.59678000     -0.186746    1.08170800   -0.67358400
Se   21.21726000    7.49176000   12.69342000      0.498895    0.78935900    0.38186800
Se    0.47719000   15.99215000    4.45295000      0.243032    0.27119500    0.21303200
Se    0.40379000   12.67012000   15.17877000      0.028151    0.33235900    0.32215900
Se   22.27702000   19.67132000    4.43005000      0.582561   -0.52369900   -0.41190100
Se   21.42067000   21.15486000   10.55461000      0.239466    0.01004900    0.74105500
Se    2.44338000    4.48734000    7.28998000      0.214269    0.69041600    0.80825900
Se    1.94360000    3.39564000   13.05466000      0.296046    0.67453400   -0.27324600
Se   22.48806000   11.59790000    4.79828000      0.660952   -0.49966900    0.33330400
Se    0.36046000    9.01061000   14.50426000      1.366326   -0.07260800    0.09287300
Se    1.67677000   14.52928000    1.69643000     -0.679210    0.52536300   -0.60462900
Se    0.84244000   16.76036000   14.17734000      0.003114   -0.67041400   -0.20692700
Se    2.62851000   21.46718000    1.70315000      1.694141   -0.41560900    1.18751700
Se    5.34783000   18.11035000   17.19019000     -0.022508   -0.42281700    0.16562800
Se   10.51347000    3.66223000    4.64458000     -0.104944    0.67127200    0.94377500
Se    7.41245000    2.61907000   12.99311000     -0.080099    0.10099700    0.12108000
Se    7.12654000    9.73130000    3.68725000      0.262155    0.24411700   -0.20978900
Se    8.11402000   10.91030000   13.49123000     -0.296579   -0.65594800    0.44284600
Se    7.61964000   15.12480000    1.57955000     -0.274245   -0.29866500   -0.39884000
Se    9.38461000   15.10928000   14.29077000     -0.135025   -0.00985600   -0.48452900
Se    7.64548000   22.02090000    9.12409000     -0.704705   -0.28438000   -1.21384200
Se    5.91266000   20.57631000   14.64714000      0.334675    0.16512000   -0.03281700
Se   15.29240000    1.06880000    2.46884000     -0.332423   -0.54744100    0.42382800
Se   10.23187000    5.25190000   13.67402000      0.774444    0.25123400    0.58073700
Se   14.09386000    9.99781000    0.82701000     -0.519098   -0.96551500   -0.36164200
Se   15.62023000   10.91776000   13.65627000     -0.778677   -0.64136300    0.10457900
Se   10.05512000   16.29716000    6.92633000     -0.180282    0.05379800   -0.29506500
Se   13.18459000   16.88785000   11.50326000      1.060803   -0.34405500    0.22481000
Se   14.35273000   21.13116000    2.44450000      0.494600    0.44272500    0.04684500
Se   15.82739000   23.29241000   13.89755000     -0.147661   -0.21312700    0.14821200
Se   18.54149000    5.83721000   18.80240000      0.172322    0.11151900   -0.30367600
Se   14.89858000    5.42940000    8.69220000      0.903190   -0.66258600    0.38946200
Se   20.45760000    7.93885000    2.97147000      0.085923   -0.55426700   -0.32444500
Se    0.41017000   12.82870000   12.62773000     -0.364782   -0.19628100   -0.59083400
Se   19.98399000   16.12050000    4.09977000     -0.073641   -0.68897100   -0.80544100
Se   18.71236000   17.17940000   14.21086000      0.391292   -0.13564300   -1.64886100
Se   19.23938000   22.25038000    4.85909000      0.195867   -0.70468500   -0.51759900
Se   18.91849000    0.38259000   13.90134000     -0.430904   -0.44648900    0.20348800
