384
23.69824000 23.69824000 19.89960000
Ge    5.67927000    6.40909000   11.67428000     -1.130629   -0.40309100    0.01998300
Ge    5.95059000    5.52225000    3.69663000      0.115596   -0.30049000   -1.26851600
Ge    1.80705000   12.60290000    7.16982000      0.177969   -0.37823900   -0.05928400
Ge    9.36845000   14.42999000   16.99000000     -1.888939    0.64486900   -0.64357800
Ge    5.00800000   14.94951000   10.29913000      0.541613    0.82896400   -0.41163500
Ge    9.59497000   18.27804000   19.58191000      0.303920    0.32612500   -0.01162100
Ge    6.87966000   23.00632000   11.14257000     -0.021753    0.15815700    0.76500200
Ge    5.94551000    2.03412000    0.76455000      0.139171    0.09664600   -0.23800600
Ge    9.50054000    5.65205000   11.11916000      0.511137   -0.41749800    0.19485800
Ge   11.15921000    5.64114000   19.57517000      0.208635    0.16103200   -0.02614700
Ge   10.89394000    9.70397000   10.71098000      0.356644    0.16167400   -0.12547200
Ge   13.64294000   11.80024000   18.84279000     -0.230802   -0.25823100    0.48638100
Ge   10.88195000   17.48072000    9.10296000     -0.652149    1.09236700   -2.03148100
Ge   13.58797000   15.76616000    0.50345000     -1.025227    1.24275200   -0.18282700
Ge   11.34956000   23.66978000    9.22163000     -0.590333    0.26171200    0.25882800
Ge   15.91297000   22.92510000   19.10748000      0.928617   -0.94473700   -0.42619100
Ge   18.60296000    4.85728000   11.26518000     -0.229756   -0.00125700    0.04763600
Ge   19.89734000    9.20800000   16.95985000     -0.761029   -0.35923200    0.37788400
Ge   20.09439000   12.42648000    9.74809000     -0.358064   -0.16204600    1.00336200
Ge   18.25186000   11.77815000   18.25809000     -0.546634   -0.54007500   -0.71389500
Ge   15.16355000   19.07501000    8.75786000      0.135004   -0.43613600    0.36422400
Ge   18.92552000   16.18421000   19.03052000      0.027581   -0.23118500    0.44043300
Ge   19.92766000    1.87556000   12.36706000     -0.154975   -0.26172600   -0.37832500
Ge   20.19305000    3.97232000    2.12365000     -0.508179    0.53901300    0.15465600
Ge   23.49888000    5.67859000    9.11501000      0.116529    0.03619300   -0.01666100
Ge    2.09233000    3.46150000    5.00525000     -0.169711    0.10885300   -0.69413700
Ge    2.19505000    9.77721000    9.59330000     -0.431123   -0.36490400   -0.39433600
Ge    0.19309000    9.99936000   19.19501000     -0.208843   -0.81802400    0.58838800
Ge   22.02409000   15.99153000    9.25739000     -0.476839    0.35313600   -0.69747600
Ge    1.27152000   14.70469000   19.10622000     -0.485356   -1.05645900    0.15202600
Ge   19.08789000    0.69684000    9.73505000      0.939278    1.28510100    0.05174100
Ge    0.92323000   21.36602000    0.09531000     -0.653195    0.62183000   -0.91008800
Ge    4.61288000    7.95095000    8.59499000     -0.312972   -0.40735500    0.54061200
Ge    2.13907000    6.78576000   19.58895000      0.304060    0.24596600   -0.00340800
Ge    1.87378000   10.24138000    5.60896000      0.596517   -0.88915800   -0.39386700
Ge    4.45961000   12.45770000   16.07305000     -0.476545   -0.37187600    0.17983400
Ge    5.53155000   18.23737000    3.55857000      0.359457   -0.05311200   -0.72574700
Ge    0.28998000   17.51571000   18.56994000     -0.523468   -0.38204300   -2.26583800
Ge    5.67464000   20.03121000    8.78500000     -0.370763    0.04686800    0.41965100
Ge    3.97264000   23.25374000   17.93584000     -0.216121   -0.82491100    0.04462600
Ge   10.01877000    2.64659000    7.06299000     -0.918350   -0.54376100   -0.33022800
Ge    7.06141000    8.82703000   18.94926000     -0.893874    1.24792400   -1.66222600
Ge    6.09004000   12.73505000    6.38746000      0.205145   -0.62619200    0.55823900
Ge    8.54208000   10.05678000    1.80008000     -1.186311   -0.42823700   -0.12941900
Ge    7.81147000   18.37737000    6.71986000      1.214518    0.33010900   -0.26851200
Ge    4.39807000   19.86120000   18.71332000     -0.128296    0.05328800    0.10588100
Ge   11.25984000   22.82380000    6.30893000     -0.445176    0.57783500   -0.66454000
Ge   10.18352000    1.49824000   17.65106000     -0.442240   -0.51079500    0.24648500
Ge   12.80366000    6.66848000    6.03006000     -0.046903    0.51750200   -0.54343800
Ge   13.96000000    8.43963000   18.48734000     -0.767686    0.61527600    0.60177200
Ge   16.20647000   11.76598000    7.02431000      0.700288   -0.25133000   -1.26809400
Ge   16.54027000   15.50610000   15.66572000      0.621284   -0.48277400    1.24413400
Ge   12.68421000   17.07037000    4.86866000     -0.694820   -0.96696700    0.11555700
Ge   14.87108000   18.75955000   16.57418000      2.268748   -0.30090300    1.54949200
Ge   15.21759000    0.36350000   10.06032000      0.476908   -0.01073500   -0.19815300
Ge   16.28934000    4.21122000   18.48754000      1.232623    0.35913600   -0.23524100
Ge   19.87550000    5.55979000    8.02843000     -0.471904    0.33115800   -1.25437000
Ge   21.17853000    5.28386000   16.24914000      0.149574    1.98423800    1.42207300
Ge   19.71464000    8.65648000    8.03330000      0.073050   -0.04538700   -0.82482700
Ge   22.15593000   12.63665000   18.70817000     -0.294716    0.64935600   -0.28955900
Ge   19.48233000   17.67242000    7.50395000     -0.290017    0.08267800    0.56699700
Ge   20.74934000   18.95585000   16.46491000      0.684319    0.14032600    0.15938100
Ge   19.73236000    0.96877000    5.45127000     -0.348479   -0.26895800    0.57337400
Ge   20.19065000   21.26486000    0.81048000     -0.709588   -0.37465700    0.90640500
Ge    5.97402000    3.11431000    9.14751000      0.493610    0.69637800   -0.22654800
Ge    4.46655000    3.44445000   17.07901000      0.179723    0.00221000    1.01263900
Ge    3.48936000    6.70237000    5.52724000     -1.267820    0.36465800   -0.58849700
Ge    2.72250000    9.52743000   13.53996000     -0.064885   -1.14102400    0.00337800
Ge    1.92459000   17.21391000    6.16678000     -0.884458    0.87266900   -0.29414400
Ge    2.02725000   15.23562000   15.82442000     -0.078333   -1.07985000    0.41775600
Ge    0.33258000   19.80256000    9.21697000     -0.186761    0.05257000    0.75483200
Ge    2.92911000   21.03013000   13.88380000      0.652598   -0.64341900    1.01307100
Ge    9.53015000    2.97397000    2.31918000     -0.216988   -0.09415400    0.05738900
Ge    8.47779000    2.18053000   15.64627000     -0.191057   -1.10490100   -0.33786700
Ge    9.50953000   10.99222000    5.27883000     -0.922378   -0.14082700   -0.25689400
Ge    7.41364000   10.45409000   15.69338000      0.074491   -2.51756500   -0.16656100
Ge    9.17310000   14.05061000    7.19567000     -1.236167    0.78330200    0.47767500
Ge   14.06048000   11.70771000   15.78572000      0.956697    0.07945400   -0.33048900
Ge    7.71523000   21.65791000    5.40020000      0.781515   -0.57851600   -0.44115400
Ge    8.53902000   20.06396000   15.38225000     -0.066561    0.07637600    0.30497000
Ge   14.68601000    1.85877000    6.45636000     -0.108319    0.24145800    0.23259500
Ge   12.65977000    2.49587000   15.91652000      0.162378    0.13816500   -0.47832800
Ge   15.33302000    9.80458000    4.47874000     -0.230017   -0.41322000    0.38391500
Ge   15.69391000    8.48649000   14.75780000     -0.205847    0.02382500    0.10727300
Ge   15.88480000   13.55241000    3.89387000      1.432317    0.31566100   -0.33883200
Ge   13.23346000   16.26480000   15.16364000     -0.673615   -0.15987800    0.81375000
Ge   13.89841000   19.46989000    0.67483000      0.172523   -1.07730900   -1.11025700
Ge    9.97637000   21.52221000   19.34425000     -0.044263   -0.22442600    0.34717500
Ge   23.25553000    3.99481000    4.74502000     -0.098319    0.94557500   -0.88647100
Ge   21.11556000    2.65935000   15.12414000      0.469763   -0.47101200    0.23263200
Ge   22.25113000    9.68658000    6.68028000      0.500199    0.19561500   -0.67817500
Ge   20.47795000    9.84262000   13.20977000     -0.395193   -0.58959600   -1.59824200
Ge   22.13333000   16.77462000    2.75829000     -0.839759    0.50468600    0.09521000
Ge   19.66914000   14.63598000   13.79202000     -0.144319   -0.93083100    0.12446300
Ge   20.71741000   20.41924000    6.13554000     -0.229330    0.72266600    0.75414800
Ge   20.48560000   23.04740000   17.93744000      0.500799   -1.15920100   -0.41094100
Ge    6.04885000    4.49182000    5.93365000      0.437331   -0.64124600    0.81916000
Ge    4.24647000    0.99829000   13.98696000     -0.066207    0.61590500    0.48138900
Ge    5.35715000   11.52500000    3.42975000     -0.392970   -0.47203300    0.71142600
Ge    7.92166000    8.42204000   13.11906000     -0.329023   -0.73028600   -0.00727400
Ge    5.39915000   15.62913000    0.42922000      0.425101    1.56110800    0.89841200
Ge    2.88040000   13.00009000   12.21235000      1.054465    0.90687300   -0.77565700
Ge    4.76687000   22.72023000    6.55416000     -0.745943   -0.48666000   -0.80450600
Ge    6.90990000   20.28180000   12.51020000     -1.041316    2.18654600    0.56995300
Ge   15.50289000    5.02669000    3.22848000     -0.023979    0.38138900   -0.35674700
Ge   13.46722000   23.50194000   13.07366000     -0.120380    0.26737300    0.36615400
Ge   11.58831000    9.65666000    0.39079000     -0.435877    0.13031200   -0.22581300
Ge   13.56710000    9.73290000   12.70071000     -0.055900   -0.33610600   -0.08757500
Ge   11.09131000   13.44299000    2.02599000     -0.108245    1.30374100   -0.53829300
Ge    7.49041000   17.06782000   10.91203000      0.439831   -0.47279900   -0.26717300
Ge   13.05021000   23.31961000    2.54254000     -0.259942   -0.07910300   -0.80130100
Ge   11.14288000   22.06982000   13.20958000     -0.170140    0.48268100   -0.29549800
Ge    0.09019000    1.71598000   18.41902000      0.968034    1.40724100   -1.03932500
Ge   12.83997000    6.02046000   12.69889000     -0.259690   -0.51716500    0.22032800
Ge   17.77839000    8.77351000   19.60647000      0.228622   -0.19551700    0.05308600
Ge   12.93459000    6.82117000    8.56897000      0.403095    0.51717400   -0.06747000
Ge   20.63691000   13.02050000    2.86674000     -1.236387   -1.11451500    0.75406800
Ge   16.89461000   15.94732000    8.57359000     -0.303634    0.24663400    0.15890000
Ge   17.33631000   21.47618000    3.07062000     -0.051252    0.09095000   -0.61711900
Ge   18.84503000   21.37574000   12.95622000      0.137086    0.33178700   -0.19031800
Ge    0.35570000    1.25293000    3.14481000     -1.156773   -0.37617200   -0.01453100
Ge   22.84780000    2.40082000   10.98840000      1.026582   -0.35262500   -2.64099500
Ge   22.96148000    9.36752000    3.16019000      0.214379   -0.04050200    0.51427800
Ge   23.20853000    9.04086000   12.46128000      0.062363   -0.26153900   -1.48733300
Ge    1.94072000   13.79561000    4.63476000     -0.253903   -0.20815200   -0.12378700
Ge   23.47407000   15.58678000   11.58483000      0.011302    0.57690700    0.66505600
Ge    0.56516000   21.10398000    4.46467000     -1.082948    0.33702200   -1.11041700
Ge   20.84590000   18.39933000   12.71514000      0.489341   -0.37265800    0.81405900
Se    2.29483000    0.78795000   19.74657000     -0.271239   -0.51012400    0.22292800
Se    1.59650000    1.68947000   10.47129000     -0.714390    0.18636300   -0.13340500
Se    0.45337000    8.09372000    1.12911000      0.007712    0.31761400   -0.45118000
Se    0.50391000    7.87220000   10.22004000      0.110494    0.66989400    0.78689600
Se   22.39227000   11.38094000    1.41483000      0.589492   -0.09955900   -0.05454800
Se    2.54504000   14.14628000    8.97019000     -0.139207    0.44856000    0.47498900
Se    2.11194000   19.65549000    3.26039000     -0.084790   -0.16552000    0.41187900
Se   23.23661000   18.77898000   11.72745000      0.582805   -0.51769400   -0.32161400
Se    6.26449000    2.98725000    3.08161000      0.426894    0.04692400   -0.27841700
Se    4.84645000    3.48842000   13.34681000      0.907201   -0.93564400   -0.37066900
Se    9.04457000    5.43948000    3.74103000      0.607234   -0.03439600    0.85497900
Se    7.56852000    9.10029000   10.66716000      0.649504    1.35095300    0.49612200
Se    7.71073000   11.58211000   19.77496000     -0.025851   -0.87390100    0.64600700
Se    6.42463000   15.57428000   12.44395000      0.292201   -0.17368200   -0.56164500
Se    7.19280000   20.50767000    2.97963000      0.180316   -0.26739300   -0.22207700
Se    9.84679000   20.55245000   11.86521000     -0.677449   -0.09381400   -0.37106300
Se   13.83042000    0.16953000   19.79921000     -1.514803    0.32070900    0.48757600
Se   13.08616000    2.08117000   12.03382000      0.605788    0.71188200    0.56891600
Se   11.65824000    7.99385000   17.89594000      0.446983    0.32879300    0.34946600
Se    9.85795000    9.37867000    8.26618000     -0.316332    0.40269400    0.01307900
Se   13.39620000   13.35748000    0.83213000     -0.002153   -0.32283800    1.26831300
Se   13.47347000    9.13929000    8.83688000     -0.510760   -0.38758200    0.68427000
Se   15.59959000   16.80241000    1.55216000      0.197998   -0.50250300    0.52005300
Se   12.37304000   18.69802000   10.58853000     -0.190569    0.95788100    0.37920300
Se   18.16602000    4.36719000    4.12727000      0.381334    0.07270600   -0.29474300
Se   14.08434000    3.80901000   13.74214000     -1.069370   -0.37168400   -0.32905600
Se   14.79416000    5.44657000   16.54970000      0.574835   -0.37329100    0.12898400
Se   19.31380000    4.57165000   13.92681000      0.976388   -0.43799200   -0.05040400
Se   19.85962000    9.79261000    0.79433000     -0.292850   -0.72057800    0.12736400
Se   17.30774000   19.11044000    7.40607000      0.180082   -0.79773800    0.47090800
Se   20.61969000   17.68330000    0.50733000     -0.646594    0.27521600    0.56652300
Se   19.58015000   19.46200000   11.00251000     -0.950346    0.40291700   -0.35144600
Se    2.54407000    1.10891000    4.05776000      0.012656   -0.03610900   -0.02630500
Se    2.61638000    5.40425000   12.26151000      0.283699    0.70902300    0.20212400
Se    5.35630000   11.70424000    0.91597000      0.632480    0.00614100   -0.56568900
Se    4.68140000   12.54118000   10.25786000     -0.698749   -0.58826500    0.89069700
Se    3.97481000   14.08756000    1.41689000     -0.765613   -1.09781900    0.42663100
Se    3.20903000   15.64261000   11.93146000     -1.040112    0.22129900    0.13597300
Se    5.64141000   21.81986000   19.25995000     -0.085751    0.10519700    0.00171900
Se    4.84312000   20.79526000   11.34006000     -0.117501   -0.46612900    0.14368600
Se   12.86383000    6.61326000    1.86465000      0.013229   -0.03615100   -0.02265600
Se    8.79646000    3.22649000   10.84800000     -0.515360   -0.25884600    0.11063300
Se   10.62452000   12.40652000   18.53607000      0.582785   -0.79422600    1.96860100
Se   11.15891000   12.14363000   11.55410000      0.043009   -1.33973100    0.58233800
Se   11.61252000   16.03314000    2.37023000      0.609282   -0.67362700   -0.17867900
Se   11.84274000   14.52176000   13.65972000     -0.769970    0.53904600    0.28202400
Se   11.64587000   23.15488000   17.88037000      0.005153    0.49852000    0.23445700
Se    9.57174000   23.46307000   11.22292000      1.017172   -0.24248100    0.22097200
Se   11.87665000    3.06896000   18.23983000      0.527785    0.78285200   -0.26696000
Se   17.70879000    7.95729000    9.41103000      0.385588   -0.18341800    1.32533500
Se   16.70201000    8.90630000    2.25062000     -0.205964   -0.28045200    0.04700300
Se   17.54475000   13.59898000   10.47034000      0.964777   -0.79613100   -0.22443700
Se   18.84840000   14.73401000    2.34962000     -0.328713   -0.04780900    0.14393900
Se   14.76418000   15.12189000    7.60365000     -0.872793   -0.27006100    0.14208900
Se   17.97374000   22.87587000    1.01851000      0.154147   -0.48440800    0.63436400
Se   17.67752000   22.79159000   10.66751000     -1.466142   -1.05820100    0.98941500
Se    0.00784000    3.42516000    2.12713000      0.107280   -0.29820400    0.16088100
Se   23.42942000    4.55678000   11.43439000     -0.226871    1.37690300   -0.32576000
Se   21.75966000    5.97324000    2.57718000     -0.733807    0.34024700    0.14491400
Se   21.09271000   12.12812000   12.30326000     -0.617939   -0.33837100   -0.73702700
Se   22.41113000   14.39321000    2.29927000      1.216161    0.58851400   -0.44597500
Se   20.70652000   15.76355000   11.80917000      0.544554    0.18011400    0.00219100
Se   23.16384000   22.64700000    2.57156000      0.625539    0.00445500    0.33286700
Se   21.33554000   23.23004000   15.65392000      0.543936    0.15587400   -0.23884200
Se    4.43468000    5.13124000    9.53213000      0.460891    0.65927700    0.61856500
Se    4.75933000    5.87465000   18.06114000      0.650122   -1.12963000    0.65778700
Se    4.05039000   11.34118000    7.50306000     -0.403724   -0.24899600   -0.37399400
Se    3.67939000    7.68500000   15.05891000     -0.389367    0.38498400   -0.32432400
Se    5.35833000   19.91466000    6.28405000      0.867408    0.41854300   -0.24198200
Se   22.51177000   15.36135000   19.22674000      0.846624    0.02221300   -0.22687000
Se    0.74940000   21.90215000   11.10673000     -0.468143   -0.82425800    0.01347500
Se    2.59079000   20.84125000   17.32231000      0.617711    0.22375200    0.78781600
Se    7.98219000    4.25536000    7.56295000     -0.746760   -0.39333400    0.08806700
Se    6.14595000    4.62653000    0.18095000     -0.497356    0.53820100   -0.49960800
Se    7.69794000   10.45614000    6.96721000      0.294447   -0.30259500    0.30601700
Se    3.51877000   10.05048000   18.62460000      0.555401    0.44304900    0.67615900
Se    6.58374000   17.62087000    8.66149000     -1.297711   -0.67772200    0.89196200
Se    6.31801000   15.91658000   18.26735000      0.333288    0.82056200   -1.69780800
Se    9.34990000   19.75494000    8.26823000      0.537135   -0.60857500   -0.00848100
Se    8.74509000    2.09595000   19.84036000      0.279171   -0.07204800    0.29923000
Se   14.00224000    2.31746000    8.94150000     -0.349546   -0.13436900   -0.37325600
Se    8.68153000    4.85772000   18.58793000     -0.552056   -0.47801800   -0.47561000
Se   10.66576000    6.08567000    8.81028000     -0.117921    0.04156500    0.17877300
Se   16.68532000   12.75210000   16.23089000     -0.124807    0.42850500    0.51008800
Se   13.47042000   17.63353000    7.38033000     -0.077441   -0.55632400    0.46665600
Se   14.80073000   16.30381000   17.54078000      0.148789    0.35889700   -0.58097800
Se   15.97967000   22.90877000    7.30889000      0.647147    1.17554300    2.15395400
Se   17.60488000    1.50626000   17.05182000      0.815334    0.45770500    0.62688000
Se   16.45093000    3.67386000   11.48689000      1.081019    0.27500100    1.01572200
Se   21.19803000    3.45508000   17.72412000     -0.308566   -0.13216900   -0.37824000
Se   18.23673000    9.21354000   12.52699000     -0.785707   -0.22872700   -0.31648400
Se   21.04594000   10.52531000   15.26235000      0.596253    0.62682000    2.02602300
Se   15.97622000   17.23305000   10.48021000     -0.509251    0.38609700   -0.13595800
Se   19.67213000   13.38776000   19.27884000      0.810084    0.70086300    0.14602200
Se   18.87294000   22.77868000    7.73685000      0.331868    0.12381900    0.12489000
Se   18.91839000   19.17581000    1.89364000      0.953944    0.07021500   -0.78867000
Se    5.87734000    0.23092000    8.39367000      0.438456   -0.16806700    0.90550000
Se    3.57143000    2.74911000   19.79000000     -0.399774    0.74493000   -0.53327400
Se    7.50319000    6.93827000    9.98806000     -0.078941   -1.02814200   -0.92303000
Se    4.34924000    8.38957000    0.18616000     -0.030252   -0.32138200    0.23736800
Se    4.21954000   16.71819000    5.89525000      1.134278    0.30731600    0.08739400
Se    6.99457000   12.26330000   16.88494000     -0.817833    1.97077700    0.64220900
Se    2.74880000   19.05600000    8.69856000     -0.024659    0.26575400    0.02057100
Se    0.65804000   18.92126000    0.33181000      0.228402    0.26419700    2.44542700
Se    9.00674000    0.34851000    6.97775000      1.202246    0.47369600    0.28672600
Se   12.51812000    4.33632000    1.30146000     -0.127523   -0.34396600    0.14042900
Se   11.30532000    2.69536000    9.22055000      0.039419   -0.40671800   -0.01378600
Se    8.38973000    7.86400000    0.62670000      1.216721   -0.85552500    1.45258600
Se   11.14643000   13.11745000    7.96542000      0.885545    0.05826700    0.83646700
Se    9.51982000   14.72023000   19.70809000     -0.211520   -0.21438200    0.87368800
Se   13.51768000   22.43102000   10.87167000     -0.135364   -0.11236800   -0.67129700
Se   11.65679000   14.70035000   16.58248000      2.972556   -0.17779500   -0.07804300
Se   17.82108000    2.26979000    8.14433000      0.055370    0.11720200    0.10938500
Se   18.12028000    5.10048000    1.05440000      0.020873   -0.19847800    0.06569000
Se   16.14752000    7.39248000    7.84215000     -0.796827   -0.21129100   -0.86931000
Se   15.30888000    9.81066000   17.07570000      0.607447    0.00208900   -0.15352000
Se   14.89789000   12.69651000    8.69254000     -0.132219    0.54940400    0.00449500
Se   16.45840000   12.11013000    0.08823000     -0.283002    0.25911300   -0.32090400
Se   14.81641000   18.70116000    4.56031000     -0.059192    0.82446400    0.03152800
Se   19.89949000   20.54924000   18.29849000     -0.261489    0.79622500   -0.40132600
Se   21.80216000    2.04378000    8.41891000      0.300979   -1.48728300    1.52709600
Se    0.28772000    0.97937000   15.99721000     -0.128224    0.10182000    0.26559100
Se   21.14043000    6.77385000    9.66724000     -0.217804    0.37633600   -0.10848500
Se   22.76570000    6.86062000   17.35289000      0.345244    0.33239600   -0.16184400
Se    0.05367000   10.98817000    8.28270000      0.294483    0.41395600    0.09555900
Se   21.44532000    8.42289000   18.78837000      0.705248   -0.23241700   -0.38953400
Se   21.51494000   18.39350000    8.60381000      0.424934   -0.45369300   -0.14930300
Se   20.14702000   16.33188000   16.93107000     -0.007989   -0.35561700    0.71196200
Se    1.04298000   23.38671000    9.34746000      0.154560    0.27154000   -0.69324000
Se    2.47822000   23.06106000   12.73270000      0.035682    1.09732100   -0.22569800
Se    2.23223000    8.14186000    7.34658000      0.440357    0.57228700    1.06374300
Se    1.99679000    8.58483000   17.67255000     -1.203535   -0.49600500   -0.63251600
Se    1.12763000   15.88038000    8.03461000     -0.742816   -0.11270800    0.59684000
Se    1.40630000   12.61047000   17.66043000      0.075146    0.12908600    0.59954100
Se    2.55919000   20.50967000    6.68413000     -0.255833   -0.09777700    0.20719900
Se   23.53488000   19.01273000   16.71165000     -0.991690   -0.29504900   -0.04975500
Se    6.05471000   23.04856000    4.41260000     -0.458909    0.59995900   -0.06086700
Se    6.24392000    1.50449000   17.54318000     -0.137988    0.19635400   -0.36107700
Se   10.45251000    7.12139000    5.56568000     -0.636293   -0.24980000   -0.39792600
Se    5.80954000    8.21980000   15.89777000      0.520672    0.63850600   -0.04134700
Se    7.07212000   13.76894000    8.57590000      0.596161    0.06942800   -0.84676800
Se    8.25574000   18.41228000   12.73990000      1.075137   -0.72380400    0.42534900
Se    7.54628000   16.60552000    3.39446000     -0.179617   -0.01830700    0.10326200
Se    9.21507000   16.91136000   15.71483000     -0.053013   -0.61788300   -0.16646100
Se   14.52738000   22.09859000    5.84769000     -1.006074   -1.20095900   -1.36181600
Se   14.86756000   23.22630000   16.25823000     -0.368405   -1.61888600   -0.75165000
Se   12.67832000    9.08068000    5.06596000      1.039103   -0.96708800    0.01909600
Se   10.42782000    7.80217000   13.29790000      0.009371   -0.27420300    0.04569900
Se   14.32845000   12.28186000    5.13969000     -0.255646   -1.02109200    0.50314100
Se   15.00390000   15.32013000   13.85334000     -0.266798   -0.24371400   -0.66716600
Se   12.53869000   19.29027000    3.85283000      0.297836   -0.09473900    0.12000500
Se   15.58432000   20.22426000   18.80760000     -0.428899    0.12202100    0.03908600
Se   17.69132000    2.07247000    4.42912000      0.217410   -0.35357900    0.23332400
Se   19.33416000    1.12822000   18.91263000     -0.939391    0.85221700   -0.58946400
Se   19.33204000    6.74749000    5.75969000      0.468741    0.21313200    1.60516600
Se   19.26327000    6.91981000   16.05953000      0.292029   -0.15589300   -0.09843500
Se   20.12274000   12.10459000    5.45126000      0.459913   -0.08356600   -0.75696400
Se   17.29436000   13.36327000   12.74761000      0.529137    0.70872400    0.60097200
Se   19.58107000   18.40927000    5.27595000     -0.493930   -0.10468600   -1.11226600
Se   20.85590000   20.81007000   14.61232000      0.068950   -0.35012000   -0.10785400
Se    5.67578000    6.88738000    6.55102000      0.831846   -0.02743600   -0.06379900
Se    2.61277000    2.66557000   15.57620000     -0.440977   -0.98193300    0.07281700
Se    3.62455000    9.54108000    3.80557000     -0.462846    0.33733000    0.12679800
Se    4.22827000   11.51819000   13.53634000      0.569972   -0.33546100    0.75939300
Se    4.36755000   14.45162000    5.30395000     -0.098098   -0.33398400   -0.49510400
Se    2.69323000   16.43953000   18.15880000     -0.564786    0.34169300    0.01531800
Se    1.52059000   22.72403000    5.91411000      0.216746   -0.07251200    0.39528900
Se    2.48157000   19.32192000   12.03540000      0.546018   -0.40919500    0.20519600
Se   12.50688000    1.20219000    5.31208000     -0.260964    0.18428400    0.49267600
Se    8.68040000    4.49061000   16.15979000      0.062128    1.48950000    0.80605600
Se   11.40065000   10.85529000    7.22357000      0.227010    0.12401900   -0.40232400
Se   10.68210000   11.83723000   16.36017000     -0.006359   -0.35161200   -1.22138200
Se    9.65590000   16.08513000   10.51195000     -0.048793   -1.12359600    0.65021600
Se   11.90309000   19.82347000   19.15486000     -1.181975   -0.23894200   -0.25312400
Se   10.32717000   22.44312000    3.83232000     -0.731276    0.53264800    0.06275100
Se    8.31644000   19.90607000   18.01547000      0.289964    0.22847200   -0.18500000
Se   13.53759000    4.61326000    4.87376000      0.633665    0.11826000    0.23348200
Se   14.78519000    6.23623000   18.80989000     -0.829794   -0.52888300    0.60780300
Se   17.47165000    9.61985000    6.43945000     -0.964872    0.58314300   -0.29482800
Se   17.35797000    7.11233000   13.52784000      0.171270    0.71784900   -0.50165700
Se   17.85448000   13.20371000    5.72704000     -1.496489    0.65862100    0.14457800
Se   12.97922000   18.69525000   15.37028000     -1.858970    0.21192600   -1.30848500
Se   16.16486000   23.52141000    4.32140000     -0.381855    0.03534400   -0.68719500
Se   17.18912000    3.81660000   13.93533000     -1.790283   -0.77569100    0.14279100
Se   21.74404000    4.07022000    7.49380000      0.305145    1.01164700   -0.78982300
Se   22.28265000    4.89635000   14.24201000      0.400241   -0.37480800   -0.17624300
Se   18.04698000   10.90974000   10.04763000      0.078857    0.65730300   -0.42452900
Se   21.87545000   13.82199000   15.90421000      0.207568   -0.35301600   -0.60103900
Se   19.71546000   15.36729000    8.17134000      0.350264   -0.12828400   -0.10813500
Se   22.79248000   16.09929000   15.71674000     -1.230316    0.53402300    1.12903100
Se   21.27204000   22.45253000    8.52611000     -0.059511    0.36169300   -0.87677100
Se   22.20140000    0.29430000   19.33845000     -0.579068   -1.17272300    1.04769500
Se    4.11370000    2.83516000    6.66951000      0.630142    0.37593800    0.57983600
Se    5.70746000   23.48209000   15.91183000      0.147860    0.09199600   -0.71565900
Se    3.37629000    4.98633000    3.44117000      0.065013   -0.02358400    0.23272400
Se    4.13651000    8.66157000   11.41401000      0.029592   -0.30299900   -0.05723300
Se    1.03643000   11.22762000    2.59246000      0.006188   -0.33699200   -0.27203300
Se    4.26166000   14.66278000   15.07713000      0.601218    0.47657700   -0.17693400
Se    4.58264000   17.86865000    1.02038000     -0.048969    0.06644400    0.54080900
Se    3.98611000   17.68020000   13.23778000     -0.566520    0.15881200   -0.68244200
Se    8.75381000    0.54114000    2.72237000      0.579623   -0.48294000    0.14949300
Se   10.71080000    1.77696000   14.54982000      0.533498    0.24800700   -0.01392900
Se   10.67118000    9.74491000    2.75618000      0.571271    0.27240500    0.15385100
Se    8.68853000    8.74754000   16.91460000     -0.036301    0.26562100   -0.07787500
Se    8.52604000   13.37697000    5.03846000      0.306728   -0.00986000   -0.85614900
Se   11.43113000   10.67960000   13.68710000      0.152635    0.69241000   -0.89387600
Se    9.24215000   19.77170000    1.81171000      0.073913    0.10918500    0.01944200
Se    9.84446000   22.30973000   15.14107000     -0.636788   -0.29064600    0.93852500
Se   17.70354000    4.61391000    8.87799000      0.480611   -0.64979700   -0.84409200
Se   15.17066000    1.70009000   16.64913000     -0.180102    1.46211100    0.42111300
Se   16.77616000    7.19784000    3.92286000     -0.183376   -0.06184600    0.03159500
Se   13.31239000    7.73759000   14.59197000      0.068570    0.26314300   -0.44948300
Se   17.40635000   11.91299000    2.22482000     -0.251343    0.35971700    0.20981800
Se   17.75717000   18.56056000   15.66370000     -1.026389    1.39034200    0.14533200
Se   15.25644000   16.35246000    3.92239000      0.183697   -0.10769100   -0.53846600
Se   16.77600000   20.41900000   14.07003000      0.346563   -0.23595300    0.83177500
Se   22.21373000    1.83752000    4.95635000      0.841704   -0.99916900   -0.44688700
Se   22.35149000    1.06545000   12.71577000     -0.826792   -0.72133500    1.00802000
Se    0.11201000    7.82800000    5.50769000     -0.378149    1.20023100   -0.52318300
Se   21.35037000    7.49631000   12.80860000     -0.080431    0.50249500    0.35905700
Se    0.79320000   16.01917000    4.31667000      0.309880   -0.35019400    0.38653400
Se    0.50925000   12.71122000   15.14472000     -0.093406    0.52539500    0.38743400
Se   22.29358000   19.62174000    4.59132000      1.213143   -0.05162800   -0.48584800
Se   21.43913000   21.08638000   10.40426000      0.105794    0.21446700    0.93562100
Se    2.30145000    4.40812000    7.38387000      0.531967    0.20977500   -0.12989900
Se    1.98073000    3.34845000   12.93685000      0.169285   -0.28109600    0.37834900
Se   22.49916000   11.60039000    4.80577000      0.264190   -1.01190000    0.82947600
Se    0.26400000    8.96337000   14.65384000      1.195151   -0.04573300    0.60125100
Se    1.58912000   14.57891000    1.63227000      0.232281    0.40632200   -0.26228700
Se    0.77045000   16.60485000   14.26306000      0.947938    0.14526700   -2.04799200
Se    2.75801000   21.18803000    1.63686000      1.390215    0.38145300    0.17544300
Se    5.29133000   18.07718000   17.27830000      0.250633   -0.58340100   -0.41118900
Se   10.46922000    3.67448000    4.80764000      0.052594    0.02741800   -0.25607000
Se    7.40506000    2.60017000   13.00490000     -0.348867    0.35551600    0.27719100
Se    7.10954000    9.76567000    3.83732000      0.480247    0.41199500   -0.71623900
Se    8.13533000   10.79246000   13.52594000     -0.110577    0.73496100   -0.32631000
Se    7.56847000   14.91860000    1.63183000      0.063474    0.54233600    0.22418700
Se    9.39030000   14.99795000   14.24876000      0.143898    0.53276500   -0.35632700
Se    7.50943000   22.09270000    8.98163000     -0.042312   -0.68082600   -1.14671000
Se    5.79839000   20.46186000   14.79101000      0.645231    0.07804100   -0.39810000
Se   15.09381000    1.07645000    2.51956000      0.296499   -0.16136400   -0.07869000
Se   10.26930000    5.22323000   13.69118000      0.511047    0.85069600   -0.59603900
Se   13.96060000    9.98754000    1.04008000     -0.297957   -0.39219600   -1.45500600
Se   15.77160000   10.82471000   13.75368000     -1.172113   -0.37718000    0.15801600
Se    9.97225000   16.33550000    6.79795000     -0.068987    0.28423300    0.10920800
Se   13.30986000   16.84261000   11.40527000      0.988393   -0.40723800    0.18540200
Se   14.35102000   21.08714000    2.23145000      0.716466    1.59670500    1.14761200
Se   15.83099000   23.27323000   13.95054000      0.085438   -0.29867900   -0.05786400
Se   18.41941000    5.99252000   18.67342000     -0.152748   -0.21478200    0.48506200
Se   14.92611000    5.42681000    8.83079000     -0.340576    0.44327800    0.01164600
Se   20.34163000    7.98783000    2.85473000      0.485452   -0.41242600   -0.35436900
Se    0.55761000   12.91913000   12.61432000     -0.984302   -0.44035700   -0.36190200
Se   19.84551000   16.01884000    4.07130000      0.590968   -0.12261800   -0.35432800
Se   18.77405000   17.06426000   14.28161000      0.391431   -0.38882400   -1.93751300
Se   19.17350000   22.15788000    4.88769000      0.262032    0.10890900   -0.37047700
Se   19.11580000    0.27772000   13.99692000     -0.665694    0.18882400   -0.18963900
