384
23.69824000 23.69824000 19.89960000
Ge    5.68701000    6.46307000   11.74336000     -1.227755   -0.28752000    0.00885300
Ge    5.98851000    5.46732000    3.73579000     -0.028284    0.02581200   -1.69745200
Ge    1.82212000   12.65350000    7.19479000      0.028286   -0.47074000   -0.33023500
Ge    9.35870000   14.45444000   16.91565000     -2.671125    0.49178500   -0.26839700
Ge    4.99855000   14.92204000   10.28485000      0.852553    1.24604700   -0.41381500
Ge    9.60020000   18.31936000   19.61577000      0.279779    0.12781100   -0.00102000
Ge    6.91577000   22.93784000   11.14661000     -0.027700    0.04193400    0.69190000
Ge    5.97996000    1.97202000    0.73252000      0.046966    0.29752100   -0.07063000
Ge    9.45214000    5.63534000   11.04200000      1.032527   -0.09659500    0.80533500
Ge   11.19470000    5.65567000   19.56734000      0.045366    0.18241600   -0.16504600
Ge   10.86004000    9.61580000   10.66784000      0.496201    0.50814000    0.09942700
Ge   13.65174000   11.84365000   18.82587000     -0.353160   -0.23277900    0.57794200
Ge   10.91818000   17.51052000    9.06906000     -0.743601    0.82756700   -1.86143800
Ge   13.59104000   15.77787000    0.47908000     -1.095693    0.83081300   -0.04398700
Ge   11.34292000   23.68268000    9.22367000     -0.520340    0.00209400    0.17427500
Ge   15.87845000   22.88645000   19.13068000      1.429279   -1.03041200   -0.53623100
Ge   18.56484000    4.84002000   11.28856000     -0.083215    0.17359100   -0.18366500
Ge   19.91675000    9.24128000   16.93970000     -0.736073   -0.55909100    0.36627300
Ge   20.02473000   12.37813000    9.75493000     -0.092686    0.07766800    0.94137200
Ge   18.23939000   11.76532000   18.22374000     -0.356099   -0.36966600   -0.60619600
Ge   15.18022000   19.06542000    8.74487000      0.160489   -0.20153400    0.34532800
Ge   18.86565000   16.14431000   19.06146000      0.400574   -0.11950500    0.12216100
Ge   19.93901000    1.93093000   12.39687000     -0.159502   -0.56272900   -0.28602400
Ge   20.26333000    4.05206000    2.07509000     -0.779016    0.29839700    0.17294600
Ge   23.46224000    5.67649000    9.12307000      0.239248   -0.03458600   -0.25842600
Ge    2.06651000    3.43391000    4.97792000      0.432430    0.20238800   -0.34965600
Ge    2.19384000    9.69530000    9.60733000     -0.604252   -0.15428800   -0.33399000
Ge    0.20549000   10.02418000   19.26411000     -0.184011   -0.73350800    0.45530400
Ge   22.03461000   15.96675000    9.31628000     -0.656075    0.50513500   -0.95645600
Ge    1.28743000   14.65246000   19.14702000     -0.538375   -0.51992400   -0.52688300
Ge   19.06546000    0.71933000    9.73516000      1.007823    1.61758500    0.05512500
Ge    0.87215000   21.38290000    0.07738000     -0.057717    0.44468500   -0.25047500
Ge    4.57026000    7.96011000    8.62447000     -0.138799   -0.60072000    0.24295300
Ge    2.08182000    6.71505000   19.55407000      0.324499    0.69764800    0.02103400
Ge    1.90166000   10.26929000    5.65056000      0.597943   -0.86738800   -0.50164800
Ge    4.48715000   12.46360000   16.08551000     -0.576932   -0.30766500    0.14176200
Ge    5.49186000   18.13993000    3.51212000      0.468976    0.11584300   -0.35562700
Ge    0.24264000   17.51185000   18.53275000     -0.145344    0.06301100   -1.18606700
Ge    5.64093000   20.06099000    8.80681000     -0.500871   -0.01978100    0.26545000
Ge    4.00966000   23.23584000   17.93775000     -0.346472   -0.84606000    0.27674400
Ge    9.99001000    2.69191000    7.11606000     -0.826607   -0.99695700   -0.49113900
Ge    7.03697000    8.81710000   18.90566000     -0.372492    0.81970000   -0.82616800
Ge    6.06269000   12.73373000    6.39946000      0.206869   -0.78043300    0.55033200
Ge    8.53813000   10.03843000    1.83961000     -1.346498   -0.58958400   -0.55239000
Ge    7.86629000   18.38537000    6.74853000      0.748670   -0.03056200   -0.38117800
Ge    4.39428000   19.81720000   18.67483000      0.011681    0.80642900    0.78338200
Ge   11.17265000   22.82458000    6.29019000     -0.087699    0.41233700   -0.63989600
Ge   10.11769000    1.54650000   17.69865000      0.247434   -0.59702300    0.16770700
Ge   12.84200000    6.65784000    6.07363000     -0.342627    0.46401500   -1.30941200
Ge   13.90326000    8.45844000   18.52263000     -0.104146    0.39798600    0.63500300
Ge   16.16981000   11.80182000    7.02424000      1.011030   -0.23817800   -1.71329200
Ge   16.49971000   15.50483000   15.71157000      0.917671   -0.34108000    1.32696700
Ge   12.67263000   17.04496000    4.92657000     -0.469778   -0.65192800   -0.04333800
Ge   14.87805000   18.70700000   16.58401000      2.251596    0.11949200    1.48405700
Ge   15.23821000    0.38184000   10.03320000      0.318326   -0.29343100   -0.14397100
Ge   16.29045000    4.18195000   18.50991000      1.226819    0.36885800   -0.20976100
Ge   19.90435000    5.55502000    8.00704000     -0.688942    0.64262300   -0.82945900
Ge   21.26982000    5.23741000   16.23870000     -0.647848    2.49847500    1.95753800
Ge   19.71117000    8.67809000    8.01964000     -0.026231   -0.20670700   -0.67553900
Ge   22.14099000   12.66402000   18.73722000     -0.161043    0.44998000   -0.34378600
Ge   19.49950000   17.70749000    7.51565000     -0.566231   -0.16435600    0.43883700
Ge   20.74316000   18.98752000   16.43019000      0.759252   -0.21474400    0.20757500
Ge   19.72301000    1.00160000    5.42368000     -0.210274   -0.53148900    0.58225000
Ge   20.11984000   21.21179000    0.79892000     -0.449959   -0.10668500    0.98916100
Ge    5.99023000    3.11100000    9.16354000      0.277549    0.72945500   -0.31423900
Ge    4.51421000    3.42782000   17.10745000     -0.197191    0.20622500    0.74023300
Ge    3.46644000    6.68106000    5.48442000     -1.251343    0.33559700   -0.48850000
Ge    2.64552000    9.56052000   13.49597000      0.097055   -1.10766100    0.23888600
Ge    1.94818000   17.24854000    6.14677000     -0.722579    0.64960300   -0.07670700
Ge    2.02696000   15.20377000   15.79395000      0.136340   -1.08506700    0.60072500
Ge    0.31158000   19.77670000    9.22418000      0.049943   -0.00494800    0.71096200
Ge    2.97389000   21.03516000   13.94370000      0.441124   -0.35686200    0.61057800
Ge    9.54465000    2.97189000    2.25283000     -0.094278   -0.02241600    0.25069200
Ge    8.48392000    2.13578000   15.66997000     -0.044345   -0.37493900   -0.41601300
Ge    9.57325000   11.01480000    5.24055000     -1.357211   -0.23412000   -0.18004500
Ge    7.44099000   10.42068000   15.67661000     -0.476177   -1.23759300    0.82232500
Ge    9.19855000   14.06830000    7.14103000     -1.311924    0.70547900    0.90457700
Ge   14.05958000   11.69674000   15.82221000      1.013063    0.07422800   -0.36172800
Ge    7.71887000   21.71922000    5.39028000      1.096866   -0.86668900   -0.19528300
Ge    8.49144000   20.01463000   15.37926000      0.094877    0.20205700    0.39910700
Ge   14.67938000    1.85119000    6.44808000     -0.294195    0.22399500    0.30898900
Ge   12.64821000    2.50196000   15.92055000      0.169810    0.11605700   -0.48059800
Ge   15.41980000    9.79428000    4.54423000     -0.322178   -0.44363100    0.14974600
Ge   15.72409000    8.50691000   14.82645000     -0.375356   -0.22786500    0.16518800
Ge   15.89755000   13.57162000    3.87235000      1.064957    0.06030300   -0.18031200
Ge   13.24016000   16.28474000   15.16542000     -0.683201   -0.60097100    0.65666000
Ge   13.89245000   19.45249000    0.66852000      0.251651   -0.96903500   -1.12932200
Ge    9.96386000   21.59036000   19.27565000      0.249772   -0.39724600    0.42228100
Ge   23.32471000    3.97416000    4.74329000     -0.616764    1.05398100   -0.90871400
Ge   21.11185000    2.66689000   15.13616000      0.445143   -0.65387000    0.16150400
Ge   22.23740000    9.65849000    6.68033000      0.676307    0.32462100   -0.72413300
Ge   20.51929000    9.86874000   13.13686000     -0.557481   -0.51555900   -0.40738400
Ge   22.20982000   16.76456000    2.86090000     -0.846051    0.45416000    0.04476800
Ge   19.65017000   14.58175000   13.77830000     -0.174586   -0.90210100    0.16182100
Ge   20.66251000   20.43408000    6.15454000      0.184882    0.60577300    0.46816100
Ge   20.45001000   23.04939000   17.93670000      0.774829   -0.98539500   -0.56622200
Ge    6.07812000    4.52933000    5.95956000      0.154154   -0.98845200    1.01673600
Ge    4.26960000    1.03439000   14.00473000     -0.285869    0.55455000    0.22834600
Ge    5.35403000   11.54719000    3.46864000     -0.296735   -0.59124500    0.70819400
Ge    7.88462000    8.42968000   13.13458000     -0.159692   -0.95756800   -0.30801300
Ge    5.40985000   15.61053000    0.49901000      0.649803    1.56828500    0.05312700
Ge    2.92764000   12.96484000   12.24741000      0.675199    1.03625300   -1.02186700
Ge    4.74990000   22.72175000    6.51523000     -0.773595   -0.54491900   -0.49154700
Ge    6.89456000   20.29934000   12.56641000     -1.469007    2.68083000    0.23716400
Ge   15.47786000    5.07749000    3.20326000      0.204745    0.43194700   -0.50855300
Ge   13.47059000   23.55935000   13.08077000     -0.152838   -0.11807600    0.38685300
Ge   11.56899000    9.66216000    0.32224000     -0.649189    0.30825800   -0.07754100
Ge   13.58900000    9.74469000   12.68851000      0.017692   -0.47541200   -0.10488800
Ge   11.09654000   13.46629000    2.01370000     -0.203298    1.20321500   -0.39037500
Ge    7.49398000   17.11328000   10.83866000      0.457037   -1.02921700    0.80509400
Ge   13.03418000   23.31161000    2.48234000     -0.440893   -0.11224600   -0.69269100
Ge   11.14818000   22.07359000   13.20213000     -0.079273    0.81397000    0.28337000
Ge    0.14453000    1.69998000   18.47011000      0.658413    1.24610900   -1.10411600
Ge   12.84097000    6.04968000   12.77710000     -0.317889   -0.63225500   -0.05658700
Ge   17.75397000    8.75776000   19.59534000      0.242117   -0.17351600    0.13487000
Ge   12.84437000    6.80565000    8.53900000      2.136451    0.82336300    0.45530200
Ge   20.61614000   13.09849000    2.87596000     -1.266691   -1.55993600    0.73233600
Ge   16.95605000   15.98215000    8.54396000     -0.751342    0.27902900   -0.07620800
Ge   17.33640000   21.47273000    3.05524000     -0.062098   -0.00662500   -0.61319700
Ge   18.85303000   21.37643000   12.94976000     -0.055913    0.18682800   -0.20445600
Ge    0.39986000    1.28402000    3.13321000     -1.260760   -0.36484400   -0.06992900
Ge   22.90529000    2.42208000   10.99619000      0.251458   -1.54888100   -2.46193300
Ge   23.00534000    9.35861000    3.16789000     -0.034386    0.08302000    0.68461800
Ge   23.21261000    9.01457000   12.46958000      0.488921    0.03987400   -0.93907100
Ge    1.94525000   13.69652000    4.54599000     -0.110770    0.07559500    0.14885300
Ge   23.51101000   15.65799000   11.59596000      0.112583    0.50828900    0.78577000
Ge    0.59119000   21.11295000    4.48676000     -1.593415   -0.19399100   -1.58591200
Ge   20.84542000   18.37518000   12.72074000      0.090388   -0.16847200    0.43558100
Se    2.33546000    0.80607000   19.72461000     -0.267983   -0.63256000    0.24372900
Se    1.52695000    1.68075000   10.46335000     -0.159322    0.24147300   -0.20117100
Se    0.43426000    8.14667000    1.16725000      0.265826   -0.08262000   -0.71969300
Se    0.43486000    7.88988000   10.23850000      0.231210    0.70840800    0.77924400
Se   22.33514000   11.39196000    1.43450000      0.511981   -0.06697600   -0.01759000
Se    2.47946000   14.15347000    9.00193000      0.002980    0.59939600    0.54537700
Se    2.10184000   19.66442000    3.27068000     -0.032751   -0.39909200    0.47681600
Se   23.21906000   18.75985000   11.69445000      0.628281   -0.51463200   -0.37684200
Se    6.34163000    3.00939000    3.07835000      0.520989   -0.27305300   -0.66586700
Se    4.93006000    3.51813000   13.32361000      1.029118   -0.98247000   -0.32770300
Se    9.12154000    5.42259000    3.78599000      0.498793    0.37346900    0.91944400
Se    7.58843000    9.12047000   10.60530000      0.637087    1.27323000    0.72987900
Se    7.71074000   11.60340000   19.77521000     -0.053883   -1.06681200    0.85980700
Se    6.43218000   15.56042000   12.45352000      0.349562    0.22740700   -0.96605900
Se    7.20888000   20.47395000    3.00195000     -0.031666   -0.33793200   -0.22221600
Se    9.87088000   20.58967000   11.89738000     -0.769129   -0.46828000   -0.77404200
Se   13.85741000    0.17522000   19.79814000     -1.841023    0.52435800    0.41149800
Se   13.03995000    2.08644000   12.07186000      0.629461    1.02954500    0.39301800
Se   11.62642000    8.02791000   17.93402000      0.268258    0.27293900    0.18800200
Se    9.86141000    9.36917000    8.30787000     -0.527649    0.42052700   -0.41934700
Se   13.39900000   13.31947000    0.87378000      0.193046    0.09421900    1.09776700
Se   13.41464000    9.11700000    8.82147000     -0.558165   -0.45439300    0.75882600
Se   15.58274000   16.84741000    1.55746000      0.253702   -0.47450700    0.21385100
Se   12.36930000   18.70699000   10.58712000      0.122639    0.41413300    0.77212600
Se   18.16348000    4.35792000    4.07654000      0.376826   -0.02137700   -0.20705700
Se   14.09405000    3.80195000   13.71576000     -1.082020   -0.44750000   -0.18354800
Se   14.82861000    5.40004000   16.56661000      0.421612   -0.35415400   -0.33099700
Se   19.40151000    4.54235000   13.91467000      0.378694   -0.44500600    0.08972900
Se   19.81880000    9.81944000    0.82194000     -0.109102   -0.93623500   -0.02924400
Se   17.30693000   19.16927000    7.38215000      0.229471   -0.92202300    0.52667500
Se   20.60022000   17.66243000    0.47058000     -0.711722    0.20610900    0.55170100
Se   19.52035000   19.47319000   10.98976000     -0.478201    0.24300200    0.01058900
Se    2.57341000    1.08251000    4.17192000     -0.103544    0.22306000   -0.25447700
Se    2.60515000    5.35949000   12.26749000      0.524066    1.22656100   -0.04429400
Se    5.40109000   11.68438000    0.95483000      0.572527    0.02491900   -0.69417000
Se    4.71320000   12.58288000   10.24445000     -0.625635   -1.09473100    0.92839300
Se    3.97732000   14.06301000    1.45038000     -0.927739   -1.14830100    0.34715300
Se    3.20658000   15.57761000   11.89698000     -0.975726    0.37704100    0.30039400
Se    5.67891000   21.82025000   19.29401000     -0.438100   -0.20871500   -0.18916700
Se    4.80976000   20.74796000   11.36610000     -0.018821   -0.47950200    0.06635600
Se   12.83659000    6.59077000    1.91392000      0.185735    0.60343300    0.10004400
Se    8.76171000    3.27393000   10.87982000     -0.641679   -0.58950700   -0.03351400
Se   10.66734000   12.39215000   18.53519000      0.547060   -0.85017400    1.55815500
Se   11.15095000   12.14784000   11.47009000      0.074327   -1.62966800    0.59150900
Se   11.59175000   16.00530000    2.41685000      0.647419   -0.55946000   -0.31794200
Se   11.85811000   14.50908000   13.67113000     -0.717328    0.48840100    0.21185200
Se   11.63536000   23.19879000   17.94745000     -0.128203    0.43832300    0.08372300
Se    9.62350000   23.50956000   11.20018000      0.787373   -0.22923000    0.21308500
Se   11.91766000    3.06979000   18.24933000      0.193673    0.60838900   -0.33966000
Se   17.68133000    7.93044000    9.39977000      0.789937   -0.02948700    1.48329600
Se   16.73900000    8.91802000    2.27119000     -0.198909   -0.01702500    0.04009000
Se   17.60007000   13.59204000   10.46086000      0.723140   -0.76235600    0.05827000
Se   18.82215000   14.69867000    2.38110000     -0.669829    0.07854900   -0.28784200
Se   14.72131000   15.12907000    7.61065000     -0.411460   -0.16892200    0.25967200
Se   18.00773000   22.90459000    1.03933000     -0.052847   -0.56314900    0.60943100
Se   17.64287000   22.84325000   10.67333000     -1.590654   -1.14040500    1.22552700
Se    0.01810000    3.47699000    2.08800000      0.134101   -0.44747200    0.38076100
Se   23.36118000    4.54850000   11.39139000     -0.171471    2.14548900    0.05488900
Se   21.77361000    5.99851000    2.59696000     -0.672448    0.44053400   -0.00645600
Se   21.05892000   12.15418000   12.34996000     -0.501857   -0.14571600   -0.92851600
Se   22.41661000   14.38828000    2.32378000      1.434766    0.76076300   -0.40828500
Se   20.71090000   15.77395000   11.82316000      0.581641    0.13396600   -0.09695000
Se   23.14978000   22.62508000    2.55125000      0.820162    0.11316200    0.33086500
Se   21.32288000   23.25682000   15.57941000      0.451148    0.23218500    0.10430000
Se    4.36949000    5.12613000    9.44781000      0.600701    0.78680100    0.95624100
Se    4.76545000    5.92831000   18.07140000      0.700413   -1.20778200    0.76205000
Se    3.99156000   11.33664000    7.44994000     -0.285030   -0.13255900   -0.38003300
Se    3.71900000    7.72445000   15.03987000     -0.940164    0.22897000   -0.54693300
Se    5.39486000   19.89053000    6.30748000      0.776578    0.45814100   -0.10185500
Se   22.53172000   15.31981000   19.22992000      0.797982    0.09938600   -0.13154600
Se    0.74013000   21.88775000   11.13586000     -0.437655   -0.78818200    0.02911000
Se    2.58383000   20.86754000   17.39150000      0.543899    0.23108500    0.53544900
Se    7.98500000    4.23131000    7.55172000     -0.847906   -0.16463000    0.41251700
Se    6.10102000    4.62907000    0.13959000     -0.386998    0.51144300   -0.38393300
Se    7.71563000   10.45349000    6.99594000      0.455264   -0.19838500    0.01266000
Se    3.58245000   10.04921000   18.62954000      0.236424    0.06003000    0.56565900
Se    6.55370000   17.66224000    8.73536000     -1.285433   -0.40019100    0.07417100
Se    6.29831000   15.96220000   18.24138000      0.138237    0.55333100   -0.80973500
Se    9.37704000   19.71900000    8.21519000      0.811186   -0.39874200    0.22965800
Se    8.76489000    2.08064000   19.79239000      0.002410    0.01004600    0.39084100
Se   14.01523000    2.35263000    9.00612000     -0.347598   -0.12125500   -0.56818100
Se    8.74728000    4.83069000   18.58549000     -0.576773   -0.32610800   -0.68869600
Se   10.71745000    6.10238000    8.80265000     -1.487287   -0.52337700    0.19691700
Se   16.67715000   12.75642000   16.17381000     -0.128030    0.52532400    0.56450200
Se   13.46173000   17.64881000    7.39545000     -0.092772   -0.51965800    0.27259200
Se   14.80814000   16.34584000   17.59531000      0.040055    0.01890900   -0.53750100
Se   15.98296000   22.91365000    7.31937000      0.798960    1.38504300    2.29861300
Se   17.55111000    1.53286000   17.03969000      1.126442    0.46062800    0.62852600
Se   16.44149000    3.68097000   11.53648000      0.781113    0.16509000    0.95459500
Se   21.20902000    3.43506000   17.68955000     -0.278006   -0.29555900   -0.05894900
Se   18.22722000    9.09895000   12.55611000     -0.492514    0.36164900   -0.49714300
Se   21.07346000   10.54852000   15.29218000      0.433494    0.35580000    1.03302000
Se   15.96729000   17.26728000   10.44859000     -0.325749    0.19193700    0.01884300
Se   19.69813000   13.35730000   19.32336000      0.372047    0.57965300    0.04081100
Se   18.84620000   22.87588000    7.75308000      0.601286   -0.07078600   -0.07988200
Se   18.97178000   19.16238000    1.87811000      0.654203   -0.09526200   -0.74673800
Se    5.90613000    0.21139000    8.39481000      0.047176    0.04971800    0.68997300
Se    3.62355000    2.76951000   19.76628000     -0.399197    0.68238300   -0.43993800
Se    7.52385000    6.93247000   10.02662000     -0.477721   -1.03268400   -1.06023600
Se    4.35018000    8.37273000    0.22164000     -0.245730   -0.35770600    0.03321300
Se    4.27312000   16.72219000    5.89987000      0.835473    0.17867500    0.08904000
Se    6.96493000   12.31737000   16.89938000     -0.475597    0.76767200   -0.14843000
Se    2.77075000   18.98733000    8.65662000     -0.158399    0.63313000   -0.23712400
Se    0.65197000   18.92910000    0.38260000      0.049369   -0.34346700    1.40209500
Se    8.99708000    0.30407000    6.97664000      1.054564    0.70453500    0.25627800
Se   12.54700000    4.38349000    1.28082000     -0.120328   -1.05798200    0.08027100
Se   11.29844000    2.62814000    9.23821000      0.213596   -0.06043600    0.09175900
Se    8.36713000    7.80500000    0.66552000      0.673440   -0.22770200    0.82719300
Se   11.11278000   13.12910000    8.01663000      0.871497   -0.15013500    0.69163300
Se    9.49712000   14.68047000   19.75530000     -0.165281   -0.17241400    0.74603700
Se   13.50396000   22.42893000   10.90794000      0.093329    0.16103700   -0.71925400
Se   11.60100000   14.66739000   16.60990000      3.884939   -0.07955700   -0.16008200
Se   17.77857000    2.25630000    8.15385000      0.072181    0.46934900    0.22329800
Se   18.02150000    5.05101000    1.01326000      0.351113   -0.17547000   -0.08015100
Se   16.14430000    7.39344000    7.84240000     -1.193273   -0.34129900   -1.04626400
Se   15.33648000    9.82088000   17.12348000      0.359066   -0.06159100   -0.04724900
Se   14.88684000   12.75315000    8.65842000     -0.358195    0.68511100    0.51826100
Se   16.48449000   12.13714000    0.07914000     -0.531363    0.30148600   -0.62638700
Se   14.79286000   18.75770000    4.50814000      0.054158    0.42089700    0.25702100
Se   19.96800000   20.53207000   18.26311000     -0.339514    0.77370100   -0.27916900
Se   21.80093000    2.05566000    8.42641000      0.292336   -0.60717500    1.20672500
Se    0.28943000    0.97728000   15.99513000     -0.122633    0.08407800    0.41725900
Se   21.18151000    6.78041000    9.69145000     -0.643758    0.42961700   -0.39949600
Se   22.78850000    6.86728000   17.27809000      0.421298    0.62618900    0.14807400
Se    0.09274000   10.96083000    8.24911000      0.218499    0.41423600    0.14075400
Se   21.46515000    8.39881000   18.73177000      0.668898   -0.15810600   -0.21928300
Se   21.51234000   18.43332000    8.54611000      0.689357   -0.68343200    0.08900400
Se   20.22131000   16.33240000   16.93917000     -0.418795   -0.31981000    1.05272000
Se    1.03229000   23.36278000    9.36347000      0.110641    0.16874800   -0.75486400
Se    2.48650000   23.03339000   12.66971000      0.164197    0.82475700    0.08854900
Se    2.23055000    8.22583000    7.35083000      0.474605    0.12086300    0.96859700
Se    1.96379000    8.62050000   17.68131000     -0.764164   -0.40403500   -0.27611200
Se    1.11268000   15.93348000    8.08863000     -0.709262   -0.02101800    0.41167100
Se    1.30624000   12.61189000   17.68190000      0.349291    0.01262700    0.66700100
Se    2.56002000   20.53041000    6.56839000     -0.148459   -0.28452200    0.86652500
Se   23.50985000   19.01747000   16.70388000     -0.903896   -0.24410200   -0.12370200
Se    6.02060000   22.99512000    4.42014000     -0.698544    0.89348800   -0.48378100
Se    6.20562000    1.52975000   17.50208000      0.076852    0.09185200   -0.22552500
Se   10.43029000    7.07292000    5.56738000     -0.397043   -0.19832200   -0.47192200
Se    5.81199000    8.14854000   15.89364000      0.871025    0.84191400   -0.04956200
Se    7.06119000   13.70054000    8.57611000      0.662022    0.27696700   -0.79028800
Se    8.23048000   18.46973000   12.70403000      1.357356   -1.39110300    0.28982700
Se    7.50185000   16.59356000    3.44238000     -0.114572   -0.20837300   -0.09228300
Se    9.27326000   16.87025000   15.71889000     -0.193753   -0.35640600   -0.23375100
Se   14.56978000   22.09091000    5.86283000     -1.216599   -1.32196300   -1.60086600
Se   14.86097000   23.21221000   16.25093000     -0.296359   -1.00116500   -0.53200100
Se   12.69218000    9.06530000    5.08914000      1.004352   -0.98156100    0.15723900
Se   10.44710000    7.80507000   13.26027000     -0.279250   -0.24785800    0.11365800
Se   14.32058000   12.34848000    5.21032000      0.131123   -0.95474500    0.12016700
Se   15.04855000   15.29165000   13.86588000     -0.674672   -0.23519900   -0.82134700
Se   12.54140000   19.29054000    3.86526000      0.120899   -0.29058200    0.09168300
Se   15.64193000   20.26016000   18.83495000     -0.609428    0.06158500    0.03878900
Se   17.67459000    2.05504000    4.42772000      0.155009   -0.03204800    0.13987700
Se   19.32631000    1.12787000   18.92538000     -0.929695    0.82288000   -0.62222100
Se   19.37569000    6.76634000    5.75867000      0.345628    0.24210700    1.62319500
Se   19.25080000    6.92488000   16.07755000      0.544982   -0.22884100   -0.06332900
Se   20.08806000   12.12183000    5.41648000      0.684404   -0.21806900   -0.77787800
Se   17.27816000   13.33998000   12.75930000      0.582497    0.72543400    0.27556700
Se   19.59759000   18.41037000    5.28328000     -0.540175   -0.23356200   -1.23696200
Se   20.89617000   20.83559000   14.65855000      0.002496   -0.36915000   -0.26343300
Se    5.67254000    6.88540000    6.48861000      0.629875    0.31318300    0.27687400
Se    2.64465000    2.64347000   15.55721000     -0.235143   -0.87379300    0.17197500
Se    3.62318000    9.53920000    3.74846000     -0.478090    0.50214300    0.17339300
Se    4.24123000   11.51331000   13.57866000      0.677829   -0.56992100    0.80535400
Se    4.41947000   14.44928000    5.29569000     -0.261666   -0.31394100   -0.59701500
Se    2.72395000   16.39501000   18.18862000     -0.957732    0.11440300    0.08548500
Se    1.50407000   22.73539000    5.85565000      0.419576    0.22857500    0.89915500
Se    2.49412000   19.28408000   12.09335000      0.549835   -0.35587500    0.25463500
Se   12.46823000    1.18162000    5.31592000     -0.113510    0.20871300    0.55162200
Se    8.66325000    4.54895000   16.12456000      0.096782    0.73636000    1.00076300
Se   11.32451000   10.85686000    7.18142000      0.739079    0.28964800   -0.04890500
Se   10.67549000   11.84369000   16.32064000     -0.001623   -0.29705100   -0.72639800
Se    9.63827000   16.07648000   10.47605000     -0.039463   -0.71827300    0.40751200
Se   11.90868000   19.78448000   19.14714000     -1.380325    0.04615800   -0.21526900
Se   10.29098000   22.46345000    3.78820000     -0.745752    0.60993500    0.10328800
Se    8.34497000   19.92850000   18.06087000      0.128319    0.15772800   -0.53238900
Se   13.57758000    4.61884000    4.80301000      0.359926    0.20675500    0.61690500
Se   14.72349000    6.19759000   18.77145000     -0.907008   -0.24331500    0.86184800
Se   17.44819000    9.63148000    6.42315000     -0.949208    0.64593900   -0.17639400
Se   17.34909000    7.10595000   13.52420000      0.245646    0.22505200   -0.32843300
Se   17.90601000   13.23705000    5.70206000     -1.879253    0.65165800    0.27947600
Se   12.98708000   18.68783000   15.36899000     -1.752123    0.44236800   -1.26609500
Se   16.14647000   23.51703000    4.24609000     -0.237887   -0.16020700   -0.25583500
Se   17.20745000    3.84771000   13.97719000     -1.297252   -0.71281600    0.07121600
Se   21.77737000    4.15110000    7.46838000      0.548264   -0.14009300   -0.46703900
Se   22.27020000    4.91620000   14.23774000      0.984104   -0.46148200   -0.89903000
Se   18.02146000   10.90343000   10.08385000     -0.124043    0.45074000   -0.52527500
Se   21.85886000   13.83451000   15.89386000      0.020071   -0.40487000   -0.55891800
Se   19.62667000   15.34824000    8.09959000      0.618580    0.13310600    0.05684400
Se   22.73327000   16.08789000   15.69347000     -0.867498    0.68890700    0.82715700
Se   21.27318000   22.51900000    8.52092000     -0.038853    0.16148000   -0.69662000
Se   22.17885000    0.29062000   19.36815000     -0.497279   -1.07181700    0.72342900
Se    4.14748000    2.84256000    6.73974000      0.540786    0.52047000    0.48231300
Se    5.66780000   23.49824000   15.88438000      0.364131   -0.06095500   -0.61453000
Se    3.38079000    4.99769000    3.40365000      0.093832   -0.13853100    0.43624000
Se    4.08574000    8.68080000   11.40738000      0.280015   -0.52189700   -0.14459600
Se    1.04407000   11.21349000    2.59357000      0.063298   -0.26599900   -0.32404300
Se    4.27284000   14.64964000   15.00798000      0.408140    0.46501500   -0.07697300
Se    4.57580000   17.81379000    1.08920000     -0.106108    0.07709200    0.25119600
Se    3.99459000   17.66808000   13.24241000     -0.552358   -0.01301300   -0.64525900
Se    8.78767000    0.58932000    2.71815000      0.464636   -0.72753200    0.19844000
Se   10.72489000    1.79209000   14.54115000      0.378441    0.23999200    0.06702700
Se   10.66647000    9.75247000    2.71035000      0.889453    0.19344400    0.30716900
Se    8.68463000    8.75551000   16.86016000      0.268060    0.01315900    0.20027700
Se    8.52995000   13.38385000    5.04008000      0.256352   -0.20209900   -1.20219100
Se   11.42878000   10.66256000   13.61776000      0.110512    0.81849400   -0.88310100
Se    9.21120000   19.76021000    1.85997000      0.221975    0.18244700    0.01620300
Se    9.78007000   22.31046000   15.12583000     -0.539877   -0.42291700    0.73466800
Se   17.67860000    4.69876000    8.90860000      0.722818   -1.08313900   -0.94254200
Se   15.18030000    1.73746000   16.63474000     -0.381971    0.77051500    0.33639800
Se   16.78591000    7.22401000    3.94275000     -0.201906   -0.18929400    0.07529300
Se   13.30758000    7.73275000   14.63490000      0.252320    0.43346300   -0.27674900
Se   17.41498000   11.91609000    2.18065000     -0.114408    0.17131000    0.58378700
Se   17.75175000   18.54295000   15.65947000     -0.911260    1.01211300   -0.22043800
Se   15.27473000   16.33584000    3.86627000      0.086247    0.01843300   -0.15027000
Se   16.74065000   20.41048000   14.08675000      0.574034   -0.21857900    0.73000200
Se   22.24740000    1.83319000    4.98703000      0.925028   -0.90441900   -0.63558700
Se   22.33880000    1.03945000   12.71415000     -0.757996   -0.22982100    0.52193200
Se    0.10218000    7.85190000    5.46396000     -0.384417    1.13171400   -0.45750400
Se   21.39717000    7.51294000   12.85663000     -0.458788    0.14933800    0.30710900
Se    0.90700000   16.02256000    4.28007000      0.215109   -0.56627200    0.26592300
Se    0.54190000   12.73694000   15.14328000     -0.069583    0.57362100    0.19381700
Se   22.32819000   19.60061000    4.62988000      0.879111    0.28775900   -0.12012000
Se   21.44982000   21.06736000   10.37767000     -0.075024    0.29976200    0.78570200
Se    2.26449000    4.39086000    7.41920000      0.629172    0.01317100   -0.53367500
Se    1.99849000    3.33317000   12.90196000      0.066011   -0.72728900    0.57377700
Se   22.51081000   11.57861000    4.82669000      0.218958   -0.99901500    0.86194200
Se    0.26318000    8.94532000   14.71968000      1.007703    0.02676400    0.10981400
Se    1.56010000   14.60637000    1.60090000      0.476919    0.29007500    0.20736900
Se    0.76651000   16.55237000   14.25018000      0.746466    0.29499100   -1.93074500
Se    2.84148000   21.09968000    1.63056000      0.772093    0.58592700   -0.42909000
Se    5.27687000   18.05354000   17.30190000      0.371235   -0.78058800   -0.71049100
Se   10.45357000    3.68352000    4.86276000      0.270432   -0.32972200   -0.38344400
Se    7.39612000    2.60135000   13.01445000     -0.464965    0.42827100    0.36406500
Se    7.11564000    9.78614000    3.87145000      0.385050    0.38935400   -0.66658800
Se    8.13852000   10.76302000   13.53553000     -0.026448    1.12782800   -0.65960300
Se    7.55120000   14.85835000    1.65292000      0.248973    0.70240400    0.30460000
Se    9.39453000   14.97199000   14.22597000      0.267054    0.55074600   -0.37860700
Se    7.45977000   22.10180000    8.90468000      0.238152   -0.69808000   -0.60231200
Se    5.77541000   20.42574000   14.83109000      0.663896    0.14164000   -0.32231600
Se   15.03115000    1.07222000    2.53615000      0.378733    0.07326500   -0.27340600
Se   10.29560000    5.23194000   13.68693000      0.426396    0.86184500   -0.62599000
Se   13.90685000    9.97195000    1.07961000     -0.139846   -0.38330500   -1.64405000
Se   15.79513000   10.78247000   13.79032000     -1.070389   -0.23062800    0.02663500
Se    9.94224000   16.35362000    6.75684000     -0.029044    0.31278400    0.07362400
Se   13.37881000   16.81274000   11.37980000      0.591199    0.20306100   -0.07178500
Se   14.36585000   21.10560000    2.18279000      0.689976    1.58994000    1.15124800
Se   15.83255000   23.26042000   13.96709000      0.088359   -0.28341300   -0.16961400
Se   18.37650000    6.04041000   18.63855000     -0.182076   -0.20339800    0.69370100
Se   14.93541000    5.43003000    8.88053000     -0.669254    0.73261600   -0.14197200
Se   20.31332000    7.99229000    2.80650000      0.432727   -0.23609900   -0.27856900
Se    0.58528000   12.93945000   12.59815000     -0.866056   -0.43667400   -0.22561000
Se   19.80908000   15.97706000    4.04902000      0.757840    0.27028800    0.13378000
Se   18.80673000   17.01518000   14.25640000      0.218342   -0.01038800   -1.43013300
Se   19.15723000   22.12539000    4.88739000      0.175999    0.30661700   -0.48434300
Se   19.16600000    0.24238000   14.02583000     -0.640052    0.36299200   -0.15084300
