384
23.69824000 23.69824000 19.89960000
Ge    5.65460000    6.55877000   11.87998000     -1.011161   -0.20391400   -0.11381100
Ge    6.06229000    5.36083000    3.74647000     -0.202760    0.38039500   -1.52804700
Ge    1.85094000   12.73664000    7.22849000     -0.467857   -0.36553500   -0.76946900
Ge    9.24004000   14.51897000   16.75974000     -1.169498   -0.21998100    0.30592300
Ge    5.01424000   14.92065000   10.24063000      0.889657    1.59051600   -0.28581900
Ge    9.62081000   18.40578000   19.68373000      0.188545   -0.22924000   -0.11968300
Ge    6.99236000   22.80042000   11.17580000      0.291737    0.03404300    0.03050800
Ge    6.04942000    1.86208000    0.66857000     -0.051342    0.51578600    0.14910000
Ge    9.40047000    5.59971000   10.92482000      1.671282    0.22795000    1.30675800
Ge   11.26764000    5.69338000   19.54318000     -0.111733    0.05383200   -0.34376600
Ge   10.81376000    9.46194000   10.58960000      0.829277    0.88783700    0.66897700
Ge   13.65526000   11.91951000   18.81678000     -0.395671   -0.12957300    0.77634200
Ge   10.96134000   17.59823000    8.93635000     -0.511160    0.21933400   -0.66844400
Ge   13.55338000   15.82945000    0.43249000     -1.008557    0.11474400    0.46380300
Ge   11.31284000    0.00564000    9.23263000      0.197909   -0.79569000   -0.26232800
Ge   15.86438000   22.77138000   19.15814000      1.137428   -0.17514400   -0.29790500
Ge   18.48841000    4.81552000   11.32692000      0.466547    0.58460900   -0.38783400
Ge   19.92521000    9.28456000   16.91420000     -0.687054   -0.67380800    0.38802200
Ge   19.88854000   12.28588000    9.80201000      1.077200    0.39852900    0.42619300
Ge   18.20510000   11.72773000   18.13485000      0.156582   -0.02803500   -0.16562300
Ge   15.21828000   19.04259000    8.73163000     -0.185517    0.47049800    0.10637600
Ge   18.76710000   16.06006000   19.12516000      0.889529   -0.07434200   -0.14120800
Ge   19.95677000    2.01893000   12.44486000     -0.154539   -0.76878200   -0.32532400
Ge   20.36952000    4.21822000    1.98274000     -1.214398   -0.47180200   -0.05883200
Ge   23.40068000    5.67309000    9.12537000      0.584694    0.08351500   -0.74227900
Ge    2.04117000    3.38653000    4.91423000      1.441588    0.27171200    0.25266100
Ge    2.16605000    9.53200000    9.62284000     -0.839629    0.76649000    0.10116700
Ge    0.22167000   10.04780000   19.41744000     -0.265902   -0.37262700    0.02179000
Ge   22.02959000   15.93880000    9.39441000     -0.604653    0.55407700   -1.04157300
Ge    1.30203000   14.53238000   19.19737000     -0.211239    0.37881100   -1.69530800
Ge   19.05753000    0.82461000    9.74144000      0.555048    1.09601900    0.45356900
Ge    0.77221000   21.42939000    0.03681000      0.486100   -0.14567600    0.55869300
Ge    4.48311000    7.95173000    8.69041000      0.519235   -0.89743800   -0.16689400
Ge    1.98187000    6.60588000   19.48503000      0.421394    1.27204400   -0.09052800
Ge    1.98009000   10.29618000    5.71210000      0.344454   -0.23522000   -0.84955600
Ge    4.51788000   12.46517000   16.11659000     -0.748267    0.06551500    0.07286300
Ge    5.43194000   17.95178000    3.41431000      0.711018    0.61920100    1.11390900
Ge    0.14661000   17.50803000   18.42372000      0.548538    0.13634700    0.70625400
Ge    5.55129000   20.11941000    8.86035000     -0.654567   -0.12675100   -0.02756400
Ge    4.07052000   23.16530000   17.95431000     -0.383472   -0.75672200    0.52471500
Ge    9.90355000    2.74180000    7.20157000     -0.134774   -1.33157100   -0.53926800
Ge    6.97684000    8.82562000   18.79171000      0.271846    0.17866300    0.25736700
Ge    6.01594000   12.70094000    6.44392000      0.154903   -0.74290000    0.18133600
Ge    8.47751000    9.97781000    1.89547000     -0.826933   -0.76661700   -0.89946100
Ge    7.99698000   18.39477000    6.78777000     -0.579613   -0.73264800   -0.78973100
Ge    4.38783000   19.76659000   18.63412000      0.188536    1.41049900    1.53764200
Ge   10.99991000   22.83883000    6.22725000      1.002450   -0.15479200   -0.69145800
Ge   10.00504000    1.62021000   17.79439000      1.739454   -0.52486300   -0.91946500
Ge   12.90251000    6.65322000    6.10038000     -0.592183    0.25043300   -2.10489900
Ge   13.79673000    8.50931000   18.61731000      1.305430    0.05970700    0.58842500
Ge   16.13667000   11.86400000    6.95801000      0.832751    0.18237600   -1.36781600
Ge   16.45617000   15.48879000   15.85130000      0.930098   -0.20307500    0.68301200
Ge   12.63128000   16.97416000    5.03706000     -0.179261   -0.10596700   -0.39707400
Ge   14.97168000   18.61175000   16.65389000      0.839138    0.94718600    0.11755100
Ge   15.29068000    0.40219000    9.97442000      0.015690   -0.84430700   -0.04632500
Ge   16.33929000    4.13782000   18.54844000      0.877212    0.30947300    0.06260200
Ge   19.93277000    5.57333000    7.93625000     -0.711545    0.78222400    0.01913300
Ge   21.42029000    5.24162000   16.29163000     -1.288292    1.87590500    1.12494900
Ge   19.70396000    8.71163000    7.96635000      0.105143   -0.47306900   -0.48740200
Ge   22.10470000   12.73353000   18.78226000     -0.033134    0.03454100   -0.30900300
Ge   19.50808000   17.77079000    7.55228000     -1.012468   -0.30006200   -0.25648900
Ge   20.75926000   19.03881000   16.36733000      0.553806   -0.80481700    0.01222600
Ge   19.69731000    1.04317000    5.39326000      0.019749   -0.83458900    0.68307900
Ge   19.96610000   21.10753000    0.81066000      0.405785    0.91553600    0.25580800
Ge    6.03184000    3.13457000    9.18383000     -0.057804    0.74725300   -0.28244800
Ge    4.59384000    3.40752000   17.18864000     -1.151962    0.89431600    0.05804300
Ge    3.37480000    6.65219000    5.38241000     -0.595821    0.34511000   -0.09496600
Ge    2.49700000    9.58842000   13.41920000      0.306052   -0.40872500    0.46720400
Ge    1.96972000   17.34052000    6.10887000     -0.206009    0.11932900    0.32640400
Ge    2.03323000   15.09793000   15.75487000      0.286536   -0.77305800    0.34320000
Ge    0.27190000   19.72443000    9.26390000      0.107552   -0.00854100    0.46864000
Ge    3.07899000   21.03297000   14.08226000     -0.006018    0.12998600   -0.12380200
Ge    9.57073000    2.96896000    2.13062000      0.103743    0.28632400    0.43855100
Ge    8.49858000    2.03891000   15.69984000      0.309632    0.48629800   -0.49216300
Ge    9.64238000   11.04983000    5.15660000     -1.862447   -0.32509300   -0.26479500
Ge    7.46948000   10.31930000   15.67918000     -1.497448    0.91669400    0.69299500
Ge    9.20087000   14.12909000    7.07148000     -0.768582    0.16366900    1.40231400
Ge   14.09758000   11.67710000   15.88074000      0.950445    0.06273100   -0.41808500
Ge    7.76956000   21.80513000    5.36403000      0.903757   -0.95094000   -0.12154900
Ge    8.40242000   19.92574000   15.39130000      0.411550    0.44041200    0.56379400
Ge   14.65464000    1.84393000    6.44372000     -0.371811    0.09109200    0.32594200
Ge   12.63179000    2.51830000   15.91055000      0.180435    0.11883400   -0.30589200
Ge   15.57720000    9.75652000    4.67761000     -0.902660   -0.44094900   -0.57666900
Ge   15.76684000    8.53393000   14.97157000     -0.615817   -0.74588300    0.27847300
Ge   15.96214000   13.61043000    3.82519000      0.499274   -0.29740000    0.22163700
Ge   13.22710000   16.29894000   15.19252000     -0.474311   -0.72130900    0.24245600
Ge   13.89175000   19.38434000    0.61607000      0.272152   -0.24045600   -0.34173600
Ge    9.95082000   21.70842000   19.16027000      0.468942   -0.58399200    0.95266200
Ge   23.43087000    3.97500000    4.70406000     -1.604067    1.02320800   -0.89214600
Ge   21.12330000    2.65397000   15.16586000      0.590645   -0.74062400    0.07188000
Ge   22.23674000    9.61587000    6.65284000      0.634562    0.35235700   -0.38478900
Ge   20.58159000    9.90408000   12.98539000     -0.496357   -0.27312700    1.21483100
Ge   22.32951000   16.76023000    3.06695000     -0.607748    0.16338200   -0.06292700
Ge   19.60685000   14.43883000   13.75786000     -0.019435   -0.59551000    0.15224400
Ge   20.56464000   20.48490000    6.20878000      0.700623    0.20110700    0.00679600
Ge   20.41057000   23.01868000   17.91510000      0.904794   -0.13161200   -0.23606700
Ge    6.13718000    4.56313000    6.04811000     -0.717383   -0.98859500    0.19939300
Ge    4.30269000    1.12839000   14.04462000     -0.664209    0.41463100   -0.49090800
Ge    5.33541000   11.56569000    3.57094000     -0.245041   -0.75911200    0.35588800
Ge    7.80679000    8.40648000   13.15062000      0.311456   -0.61718900   -0.59668200
Ge    5.45426000   15.62673000    0.63362000      0.207761    0.09546200   -0.69885400
Ge    3.04616000   12.93572000   12.27919000      0.150062    0.85949400   -0.76727800
Ge    4.68574000   22.70399000    6.42303000     -0.687830   -0.46863100    0.37607600
Ge    6.81020000   20.43356000   12.68591000     -0.606003    1.29250100   -0.13807200
Ge   15.43637000    5.19714000    3.13137000      0.446389    0.50938800   -0.73902400
Ge   13.47274000   23.66521000   13.11051000      0.090355   -0.79608500    0.34085800
Ge   11.50360000    9.68873000    0.18392000     -0.978446    0.69925000    0.40549100
Ge   13.63281000    9.74780000   12.66078000     -0.044675   -0.68611400   -0.02305200
Ge   11.09508000   13.55431000    1.97628000     -0.569595    0.32356400    0.04498600
Ge    7.52653000   17.15957000   10.73639000      1.064455   -1.45971700    2.41653000
Ge   12.98253000   23.28635000    2.33447000     -0.575794   -0.44480800   -0.48762800
Ge   11.15649000   22.11590000   13.20360000     -0.188397    1.02389000    0.91331400
Ge    0.27063000    1.71327000   18.53039000     -0.440537    0.57306200   -0.88091100
Ge   12.83070000    6.08271000   12.92760000     -0.213042   -0.67990700   -0.67397500
Ge   17.71623000    8.72060000   19.57851000      0.245487   -0.07285000    0.13963300
Ge   12.76764000    6.81143000    8.50061000      3.669891    0.78465700    0.90533200
Ge   20.53348000   13.19198000    2.92527000      0.235718   -1.54870600    0.57459900
Ge   17.04614000   16.06164000    8.48141000     -1.207624    0.18542500   -0.24003100
Ge   17.33384000   21.46463000    3.00248000     -0.159501   -0.19044000   -0.33580500
Ge   18.86526000   21.38314000   12.92842000     -0.331631   -0.17182800   -0.20018900
Ge    0.43834000    1.32958000    3.10785000     -1.076754   -0.45138100   -0.01617400
Ge   23.01640000    2.40009000   10.92353000     -2.070649   -0.97768200   -0.87737600
Ge   23.08949000    9.34578000    3.21210000     -0.471143    0.34081500    0.81232800
Ge   23.24448000    8.96649000   12.45606000      0.970755    0.58073200    0.11996700
Ge    1.95185000   13.50253000    4.37639000      0.105068    0.35971100    0.46795300
Ge   23.59029000   15.81952000   11.64754000      0.137730    0.34327800    0.64105900
Ge    0.57605000   21.12135000    4.46492000     -1.982872   -0.24644900   -1.77851200
Ge   20.84445000   18.31985000   12.74773000     -0.431479   -0.02248700    0.18652200
Se    2.40796000    0.81896000   19.68983000     -0.133775   -0.62581500    0.20842200
Se    1.39420000    1.66976000   10.43816000      2.176728   -0.25586200   -0.58335600
Se    0.40943000    8.24366000    1.21681000      0.654691   -1.05312400   -0.78148300
Se    0.30650000    7.94942000   10.30284000      0.390784    0.41261800    0.42213500
Se   22.23919000   11.41211000    1.47312000      0.457220   -0.00750700   -0.08351600
Se    2.34745000   14.19003000    9.08504000      0.095321    0.56534200    0.46824500
Se    2.08305000   19.66807000    3.30578000      0.392523   -0.32788100   -0.07398800
Se   23.20802000   18.70320000   11.61500000      0.703140   -0.41428000   -0.27021000
Se    6.51472000    3.04067000    3.04445000      0.577414   -0.86854600   -1.09509600
Se    5.13295000    3.54255000   13.26597000      0.478091   -0.74881000   -0.09226700
Se    9.29160000    5.40886000    3.90801000     -0.019825    1.23375600    0.61135200
Se    7.64999000    9.19974000   10.50770000      0.356405   -0.04714300    0.65257400
Se    7.70857000   11.60499000   19.80804000      0.000211   -1.29915600    1.00910000
Se    6.46060000   15.54270000   12.43543000      0.367998    0.52639000   -1.23837800
Se    7.23692000   20.39647000    3.03941000     -0.676319   -0.09098600    0.02526800
Se    9.89025000   20.64417000   11.93020000     -0.864195   -0.79831500   -1.22861600
Se   13.84558000    0.20615000   19.80814000     -1.469193    0.50293200   -0.06174200
Se   12.97036000    2.13727000   12.15922000      0.525382    1.29863300   -0.10726500
Se   11.57008000    8.10585000   18.01403000     -0.207041    0.19717300   -0.27576300
Se    9.84684000    9.36622000    8.36937000     -0.878733    0.52724900   -1.47775600
Se   13.41340000   13.25107000    0.99206000      0.442105    0.68052300    0.33310400
Se   13.27618000    9.05884000    8.81808000     -0.401016    0.19260700    0.80743200
Se   15.55849000   16.91981000    1.57031000      0.252761   -0.43662400   -0.72925200
Se   12.36821000   18.73424000   10.61413000      0.328096   -0.44769300    0.91268200
Se   18.17213000    4.33626000    3.96743000      0.336448   -0.22793000   -0.14077100
Se   14.07488000    3.77218000   13.65998000     -0.897026   -0.35347500    0.31100800
Se   14.91339000    5.29429000   16.58572000      0.240090   -0.17029000   -0.63136200
Se   19.58184000    4.46846000   13.89460000     -0.714471   -0.24458800    0.27468500
Se   19.73537000    9.83825000    0.87381000      0.285259   -1.04789900   -0.21056500
Se   17.31346000   19.25277000    7.35466000      0.218448   -1.06756400    0.60978200
Se   20.53740000   17.62696000    0.41570000     -0.459223   -0.02775100    0.20805200
Se   19.38800000   19.50354000   10.96720000      0.386254    0.08491300    0.42396200
Se    2.62614000    1.03887000    4.38723000     -0.267946    0.45100100   -0.65524800
Se    2.60283000    5.31540000   12.27777000      0.584191    1.17827900   -0.15910600
Se    5.50891000   11.64568000    1.00678000      0.143018    0.09036000   -0.65911000
Se    4.75319000   12.62026000   10.25141000     -0.658504   -1.61493100    0.88037000
Se    3.95079000   13.97485000    1.52781000     -0.492382   -0.54068300   -0.10522000
Se    3.16815000   15.46206000   11.83854000     -0.682908    0.53256900    0.34323400
Se    5.73574000   21.81341000   19.35314000     -0.699747   -0.31006900   -0.37379000
Se    4.74261000   20.63862000   11.41931000     -0.057481   -0.08807700   -0.26676800
Se   12.78867000    6.57273000    2.01775000      0.212682    1.03760500    0.14928600
Se    8.66762000    3.34243000   10.94077000     -0.739522   -1.17958200   -0.24937000
Se   10.77153000   12.33255000   18.58190000      0.417250   -0.76847900    0.17338900
Se   11.13750000   12.09642000   11.32303000      0.028268   -1.64285900    0.50295400
Se   11.57424000   15.93282000    2.49786000      0.705356    0.09756600   -0.34227000
Se   11.86328000   14.50188000   13.70216000     -0.505724    0.42138700    0.13028100
Se   11.60869000   23.30290000   18.08168000     -0.099039    0.48950200   -0.33326800
Se    9.75126000   23.59403000   11.16514000      0.051138   -0.27952300    0.67735100
Se   12.00364000    3.09177000   18.25446000     -0.353691    0.30231600   -0.57394300
Se   17.65416000    7.87683000    9.42739000      0.527564    0.10275100    0.76616400
Se   16.80369000    8.94048000    2.31189000     -0.250504    0.09769700   -0.15193300
Se   17.73403000   13.55022000   10.44656000      0.032115   -0.57033200    0.46982400
Se   18.74001000   14.63187000    2.42752000     -1.337893    0.31199300   -1.00673900
Se   14.62466000   15.13750000    7.63369000      0.236834   -0.04146700    0.24453300
Se   18.07233000   22.94109000    1.10203000     -0.252460   -0.60713000    0.31426200
Se   17.51749000   22.90939000   10.72925000     -1.011217   -0.45618000    1.06415800
Se    0.04316000    3.56255000    2.02441000      0.019487   -0.59056400    0.52349100
Se   23.21722000    4.60734000   11.31025000     -0.318312    1.07103400    0.47272500
Se   21.77983000    6.06706000    2.63522000     -0.149627    0.53868600   -0.14889700
Se   20.97470000   12.20372000   12.40860000     -0.198525    0.28344500   -0.97847500
Se   22.47475000   14.40345000    2.35982000      0.500813    0.30741100   -0.00447000
Se   20.74067000   15.79965000   11.84668000      0.477888    0.03038200   -0.15244400
Se   23.15184000   22.58433000    2.52249000      0.811209    0.02782600    0.22919600
Se   21.31223000   23.31893000   15.43681000      0.304912    0.32754400    0.55768000
Se    4.26203000    5.14498000    9.31486000      0.608199    0.89579800    1.19207100
Se    4.80114000    5.99230000   18.12101000      0.431798   -1.00077500    0.79317700
Se    3.86800000   11.32447000    7.33164000      0.478095    0.13756400    0.04397800
Se    3.75859000    7.80888000   14.98008000     -1.280329   -0.10802000   -0.63963800
Se    5.49483000   19.86003000    6.35129000      0.513857    0.60929400    0.01082900
Se   22.59837000   15.24192000   19.23187000      0.407872    0.36091800   -0.01343900
Se    0.70658000   21.83260000   11.19304000     -0.194770   -0.31377300   -0.22181300
Se    2.58732000   20.92845000   17.54500000      0.197933    0.22293200   -0.18377900
Se    7.95985000    4.18121000    7.54918000     -0.659618    0.40739300    1.16659500
Se    5.99861000    4.65302000    0.04291000     -0.217000    0.48917300   -0.20548300
Se    7.76802000   10.44286000    7.05093000      0.439790   -0.02717900   -0.31834200
Se    3.71361000   10.04456000   18.65861000     -0.440386   -0.52009200    0.34511600
Se    6.44410000   17.73373000    8.87206000     -1.357391    0.09293300   -1.54537300
Se    6.26425000   16.06845000   18.16877000      0.353478   -0.37098200    0.57570800
Se    9.46432000   19.63676000    8.12030000      1.396240    0.33697300    0.76540300
Se    8.79950000    2.05116000   19.71790000     -0.989945    0.12934800    1.47408600
Se   14.02773000    2.41831000    9.11350000     -0.393234   -0.17108700   -0.68207900
Se    8.85669000    4.76719000   18.55357000     -0.592978    0.13436300   -0.96513600
Se   10.75049000    6.10949000    8.79524000     -2.985369   -1.23918200    0.18552000
Se   16.65654000   12.78387000   16.08218000     -0.105828    0.54676100    0.75714800
Se   13.43826000   17.66282000    7.43432000     -0.344846   -0.15532900    0.02018600
Se   14.82420000   16.42611000   17.68833000     -0.059244   -0.76425900   -0.03085600
Se   16.01020000   22.96985000    7.41541000     -0.497159    0.66892400    0.74595000
Se   17.48753000    1.60314000   17.03727000      1.533803    0.48676800    0.51314500
Se   16.44897000    3.69911000   11.66953000      0.197605   -0.18185700    0.79698900
Se   21.22039000    3.38413000   17.62000000     -0.266604   -0.30689800    0.41890300
Se   18.19551000    8.89396000   12.59063000      0.407689    2.22614100   -1.36187000
Se   21.14260000   10.60416000   15.37962000      0.109720   -0.06731300   -0.41014500
Se   15.93865000   17.34101000   10.38877000     -0.029320   -0.19821900    0.59266200
Se   19.75859000   13.31693000   19.41167000     -0.515915    0.44019300   -0.28551200
Se   18.81556000   23.06500000    7.78051000      0.846866   -0.44883700   -0.33930400
Se   19.09761000   19.12781000    1.82352000     -0.196519   -0.83432100   -0.11334100
Se    5.95960000    0.17861000    8.41983000     -0.916359    0.77790000    0.19440300
Se    3.71399000    2.83383000   19.70404000     -0.264568    0.35733700   -0.06290800
Se    7.54207000    6.89067000   10.06640000     -1.251123    0.14580300   -0.73223800
Se    4.34167000    8.32600000    0.29134000     -0.401520   -0.34780100   -0.38368900
Se    4.40729000   16.73529000    5.91105000      0.197202   -0.02159400   -0.06906300
Se    6.89281000   12.44406000   16.91759000      0.158754   -0.58270500   -0.82509100
Se    2.80774000   18.87644000    8.56421000     -0.258165    0.99540700   -0.24649700
Se    0.63896000   18.92935000    0.52468000     -0.345678   -0.63349200   -0.20374000
Se    9.01153000    0.24451000    6.98416000      0.142691    1.30725400    0.35382600
Se   12.60047000    4.43330000    1.24379000     -0.019544   -1.65628200    0.23210800
Se   11.29406000    2.49530000    9.27702000      0.449860    0.77063200    0.03810400
Se    8.34059000    7.68578000    0.76549000     -0.135036    0.70296000   -0.28065200
Se   11.07443000   13.14544000    8.14141000      0.221003   -0.33955600    0.10844800
Se    9.44556000   14.59555000   19.87378000     -0.189311   -0.03833000    0.27904800
Se   13.48271000   22.43450000   10.95270000      0.424490    0.69859600   -0.72142700
Se   11.62689000   14.59720000   16.65834000      2.633395   -0.45380900   -0.17102600
Se   17.69577000    2.24961000    8.18124000      0.025589    0.90259500    0.29531100
Se   17.83908000    4.94759000    0.92763000      0.681297    0.09082500    0.00390800
Se   16.09521000    7.38258000    7.80850000     -0.874888   -0.35777900   -0.33506400
Se   15.40232000    9.83738000   17.21908000     -0.077174   -0.13527600    0.23709700
Se   14.85329000   12.88998000    8.61236000     -0.116381    0.29128400    0.86710800
Se   16.51474000   12.20205000    0.03646000     -0.746011    0.30848900   -0.88241500
Se   14.74961000   18.88235000    4.41467000      0.578785   -0.15781000    0.59217400
Se   20.09279000   20.52629000   18.18473000     -0.352317    0.72563400    0.26897900
Se   21.80836000    2.06336000    8.48221000      0.134203    0.24014600    0.66182700
Se    0.28892000    0.97634000   16.00700000     -0.016765    0.09631500    0.58027500
Se   21.23470000    6.80923000    9.72335000     -1.467361    0.52604200   -0.77920300
Se   22.85289000    6.90572000   17.13605000      0.867308    1.01046900    0.47550600
Se    0.17717000   10.92260000    8.18746000     -0.016405    0.58514700    0.12668000
Se   21.52830000    8.34537000   18.61226000      0.445045    0.03922300    0.10555100
Se   21.53466000   18.48594000    8.43673000      0.955030   -0.90304500    0.35134100
Se   20.35164000   16.32244000   16.99561000     -1.023023   -0.13342900    1.24856000
Se    1.01289000   23.31844000    9.36948000     -0.122872   -0.28788700   -0.48721500
Se    2.51057000   23.00403000   12.55054000      0.337489    0.18494900    0.71779500
Se    2.24321000    8.38924000    7.39268000      0.300134   -1.30552400    0.54293000
Se    1.87483000    8.67839000   17.69424000      0.030443   -0.20911100    0.38284900
Se    1.05854000   16.03970000    8.20983000     -0.491408    0.09469300    0.15475000
Se    1.12085000   12.61090000   17.74783000      0.747331   -0.56763200    0.36246700
Se    2.55639000   20.56047000    6.37037000     -0.021418   -0.41627900    1.27165000
Se   23.42775000   19.02129000   16.68101000     -0.612343    0.19361400   -0.53302900
Se    5.92844000   22.92162000    4.41287000     -0.257367    0.89583500   -1.02415100
Se    6.13655000    1.57977000   17.41439000      0.861540   -0.45394800    0.11489800
Se   10.37236000    6.97184000    5.55353000     -0.089822    0.12696700   -0.34645200
Se    5.85048000    8.03956000   15.88456000      0.986111    1.14272300   -0.18150000
Se    7.06328000   13.57568000    8.54984000      0.633709    0.57327200   -0.42978700
Se    8.22627000   18.53857000   12.64086000      0.757902   -0.54104600    0.09916300
Se    7.41050000   16.55940000    3.53450000      0.155079   -0.54240700   -0.22515400
Se    9.38136000   16.77983000   15.71516000     -0.380085    0.55858200   -0.65446800
Se   14.61824000   22.03221000    5.84164000     -0.070384   -0.44259200   -0.52367600
Se   14.83789000   23.15667000   16.21968000     -0.096212    0.30552700   -0.17322700
Se   12.75539000    8.99973000    5.14148000      0.804503   -0.78674900    0.17292900
Se   10.47254000    7.80248000   13.18956000     -0.677497   -0.13702800    0.18960100
Se   14.31259000   12.44856000    5.35052000      0.533128   -0.63605500   -0.74837800
Se   15.11120000   15.22981000   13.86793000     -0.847344    0.08594600   -0.04740600
Se   12.54660000   19.27862000    3.89283000     -0.647501   -0.49711700    0.00018100
Se   15.73514000   20.32904000   18.89121000     -0.687767   -0.61498400   -0.04528000
Se   17.64529000    2.02336000    4.42942000     -0.071155    0.45276800   -0.03292400
Se   19.27869000    1.15568000   18.92810000     -0.579473    0.32541000   -0.68481400
Se   19.47589000    6.81359000    5.81663000      0.212835    0.40274400    1.58186800
Se   19.24636000    6.92636000   16.11000000      0.649537   -0.23410800   -0.19656900
Se   20.04577000   12.14838000    5.31722000      0.933971   -0.23096700   -0.78494200
Se   17.26679000   13.31884000   12.79001000      0.520482    0.61950800   -0.04753400
Se   19.61212000   18.40433000    5.25511000     -0.346102   -0.28733000   -0.74329600
Se   20.97736000   20.87296000   14.73843000     -0.025394   -0.38906700   -0.79199500
Se    5.68466000    6.89529000    6.37446000     -0.084199    0.60892300    0.44157000
Se    2.70035000    2.56896000   15.52739000     -0.093242   -0.51097100    0.53037900
Se    3.60341000    9.55396000    3.64191000     -0.393736    0.58385200    0.31791600
Se    4.29122000   11.48108000   13.69234000      0.375893   -0.74722600    0.55000700
Se    4.51203000   14.43621000    5.25833000     -0.418092   -0.00577900   -0.46605400
Se    2.74693000   16.30956000   18.24904000     -1.361550   -0.13248300   -0.02917400
Se    1.48790000   22.76991000    5.77516000      0.497396    0.44575200    1.24825200
Se    2.53895000   19.19692000   12.21815000      0.325452    0.09217900    0.17943000
Se   12.38822000    1.14872000    5.34400000      0.057282    0.28842300    0.61501600
Se    8.63240000    4.68593000   16.09116000      0.147927   -0.26643200    1.07816500
Se   11.20519000   10.87318000    7.09891000      1.551951    0.59318700    0.62978100
Se   10.66372000   11.84747000   16.22347000      0.175443   -0.04858600    0.52553800
Se    9.60377000   16.03819000   10.41545000      0.298412    0.01035600   -0.21239800
Se   11.87033000   19.71155000   19.12392000     -1.206188    0.52014800   -0.16435600
Se   10.19229000   22.52545000    3.70469000     -0.479819    0.49748100    0.19945000
Se    8.40397000   19.97866000   18.12995000     -0.258204    0.00569500   -0.94540900
Se   13.66834000    4.63665000    4.68835000     -0.052231    0.13603600    1.24580000
Se   14.56785000    6.11410000   18.72712000     -0.864104    0.09215500    0.91309400
Se   17.36931000    9.67923000    6.38717000     -0.290155    0.60632600    0.39417200
Se   17.33807000    7.09042000   13.50987000     -0.167787   -1.49618400    0.57478100
Se   17.93883000   13.32796000    5.66276000     -2.011173    0.51095400    0.33500200
Se   12.94801000   18.68898000   15.32591000     -0.252828    0.24994200   -0.31610300
Se   16.10379000   23.50003000    4.09305000      0.210317   -0.51176800    0.78506600
Se   17.20237000    3.88386000   14.06236000     -0.289687   -0.65242600   -0.14683100
Se   21.86314000    4.29712000    7.40256000      0.479282   -1.45211000   -0.14721700
Se   22.28272000    4.93957000   14.19544000      0.981782   -0.31822300   -0.68542100
Se   17.96084000   10.90393000   10.13800000     -0.851046   -0.14545900   -0.38691000
Se   21.82482000   13.84449000   15.85348000     -0.172180   -0.40333800   -0.43092600
Se   19.47277000   15.31772000    7.95902000      0.837968    0.46217000    0.21756100
Se   22.59076000   16.09193000   15.67135000      0.298981    0.77081100   -0.03092600
Se   21.27409000   22.65572000    8.48866000      0.053832   -0.09351700   -0.20299500
Se   22.11983000    0.24881000   19.44826000      0.005500   -0.47344400   -0.10874100
Se    4.23386000    2.87573000    6.89417000      0.375546    0.39232400    0.06596200
Se    5.60312000   23.52757000   15.80828000      0.546943   -0.21757900   -0.37135500
Se    3.39451000    5.01359000    3.34641000      0.248787   -0.26436900    0.62927900
Se    3.99830000    8.69958000   11.38910000      0.728205   -0.70927700   -0.15832800
Se    1.06285000   11.17687000    2.58344000      0.235233    0.00823500   -0.36714400
Se    4.30692000   14.64021000   14.86992000     -0.058370    0.24994200    0.33622500
Se    4.55607000   17.71016000    1.23115000     -0.572801    0.46102300   -0.77758400
Se    3.99257000   17.64095000   13.22957000     -0.227564   -0.45303400   -0.29462500
Se    8.87023000    0.65808000    2.71776000     -0.059094   -0.92399100    0.22361800
Se   10.76310000    1.83027000   14.52711000     -0.171463    0.08322100    0.13694400
Se   10.68839000    9.77462000    2.62763000      0.581997    0.17811200    0.15475800
Se    8.69247000    8.76633000   16.76343000      1.224113   -0.92024900    1.08722500
Se    8.54684000   13.38830000    4.99859000      0.260275   -0.39756200   -1.13804100
Se   11.42872000   10.65907000   13.44939000      0.095959    0.83140500   -0.39288500
Se    9.16183000   19.74295000    1.95732000      0.873771    0.09522700   -0.06129000
Se    9.63353000   22.29569000   15.11946000     -0.276589   -0.43890200    0.34003500
Se   17.65503000    4.82778000    8.93521000      0.811345   -1.40612500   -0.95637500
Se   15.18182000    1.83179000   16.61743000     -0.886335   -0.52086600    0.20743500
Se   16.79737000    7.26826000    3.98520000     -0.284409   -0.42955700    0.04084200
Se   13.30918000    7.74241000   14.71199000      0.450653    0.81357900   -0.00727500
Se   17.42807000   11.92793000    2.11479000     -0.085984   -0.02578200    0.69160700
Se   17.71069000   18.53912000   15.63798000     -0.472406    0.21611800   -0.80458700
Se   15.31295000   16.30365000    3.75687000     -0.127995    0.05032500    1.03748600
Se   16.69198000   20.38561000   14.14720000      0.767636   -0.18360000    0.56568600
Se   22.34920000    1.79442000    5.02419000      0.944730   -0.42840000   -0.80826400
Se   22.28744000    0.98548000   12.72250000     -0.385531    0.73999600   -0.55481200
Se    0.06961000    7.93784000    5.35949000     -0.158981    0.68308400   -0.35499100
Se   21.47090000    7.54584000   12.96385000     -0.882282   -0.61669100    0.31747400
Se    1.14071000   16.00820000    4.21558000     -0.081255   -0.64673600    0.15936400
Se    0.60525000   12.80897000   15.14447000      0.005007    0.40590900   -0.26265700
Se   22.42383000   19.56965000    4.70553000      0.049661    0.43964500    0.33371100
Se   21.46666000   21.04204000   10.35022000     -0.407230    0.48016600    0.35244700
Se    2.21459000    4.35550000    7.46913000      0.701749   -0.20056700   -0.93813900
Se    2.03657000    3.27428000   12.85400000      0.098129   -0.64149800    0.50018000
Se   22.54052000   11.49992000    4.89923000     -0.121838   -0.73577300    0.65322700
Se    0.29700000    8.91090000   14.85103000      0.833653    0.16178500   -0.65988900
Se    1.52164000   14.67075000    1.55541000      0.875270    0.08925200    1.36760800
Se    0.78074000   16.45709000   14.16110000      0.071045    0.17348200   -0.81952500
Se    3.03183000   20.94447000    1.60060000     -0.005533    0.46234800   -0.56196400
Se    5.26089000   17.97894000   17.31906000      0.048898   -0.23995100   -1.29648300
Se   10.43735000    3.68271000    4.95776000      0.843570   -1.31962600   -0.40067900
Se    7.36255000    2.61836000   13.04639000     -0.027508    0.20554800    0.32701700
Se    7.14089000    9.83897000    3.91714000      0.125585    0.17318700   -0.28287500
Se    8.14452000   10.74557000   13.52997000     -0.117677    0.93002600   -0.49952700
Se    7.52787000   14.76293000    1.70645000      0.515588    0.70993000    0.37921800
Se    9.41278000   14.94031000   14.16578000      0.343623    0.52675900   -0.46777800
Se    7.37305000   22.09127000    8.73480000      0.861026   -1.17294500    0.62772100
Se    5.75134000   20.35972000   14.90159000      0.336779    0.26674200   -0.00093900
Se   14.92026000    1.07005000    2.55794000      0.230737    0.58672100   -0.52790100
Se   10.36221000    5.27917000   13.65594000      0.123897    0.61544400   -0.47370100
Se   13.79444000    9.92570000    1.09735000      0.038238   -0.49725500   -1.78282000
Se   15.80270000   10.69253000   13.86199000     -0.875197    0.18201600   -0.26569600
Se    9.88353000   16.40074000    6.67621000      0.217044    0.23463300   -0.05516300
Se   13.53535000   16.76666000   11.32410000     -0.013180    1.08835700   -0.39811900
Se   14.41962000   21.19421000    2.12476000      0.435533    0.62784000    0.55466200
Se   15.83879000   23.22477000   13.99460000      0.040824   -0.21214100   -0.17759800
Se   18.28334000    6.12917000   18.59411000     -0.185501   -0.23398800    0.78433000
Se   14.92854000    5.46422000    8.97318000     -0.776361    0.86757800   -0.45660800
Se   20.27189000    7.99558000    2.70079000      0.185983    0.20417900   -0.13205500
Se    0.61351000   12.96452000   12.55927000     -0.222397   -0.49148700    0.19904600
Se   19.76595000   15.90816000    4.01473000      1.006270    0.92726200    0.79548900
Se   18.87672000   16.92055000   14.16014000     -0.239892    0.49247200   -0.51256100
Se   19.13027000   22.07288000    4.86793000      0.099612    0.58886300   -0.60563000
Se   19.24356000    0.18707000   14.07987000     -0.642098    0.69435200    0.08800100
