384
23.69824000 23.69824000 19.89960000
Ge    5.56696000    6.64416000   12.01136000     -0.839572   -0.22197300   -0.16497600
Ge    6.12535000    5.27555000    3.68123000     -0.320612    0.47657800   -0.49403900
Ge    1.85797000   12.80219000    7.22623000     -0.712404    0.12612500   -0.59518600
Ge    9.05712000   14.57028000   16.62163000      0.375947   -1.04835300    0.92272100
Ge    5.07452000   14.99642000   10.18052000      0.391610    0.53675300   -0.10952700
Ge    9.64854000   18.48116000   19.74809000     -0.268012   -0.56335400   -0.11937700
Ge    7.08524000   22.66746000   11.20570000      0.613383    0.54911900   -0.73649100
Ge    6.11519000    1.77833000    0.61243000     -0.068238    0.27653900    0.22734400
Ge    9.42988000    5.57652000   10.87678000      1.089227    0.35878500    1.19361500
Ge   11.33992000    5.73618000   19.50220000      0.192796   -0.07129000   -0.18917800
Ge   10.80945000    9.35143000   10.54619000      0.822566    0.83002200    0.82418200
Ge   13.63903000   11.98945000   18.84806000     -0.259440    0.11298800    0.73371600
Ge   10.97921000   17.69699000    8.76679000      0.372232   -0.48261700    0.53973200
Ge   13.46287000   15.88913000    0.40907000     -0.614376   -0.29725800    0.77516900
Ge   11.29060000   23.68371000    9.22793000      0.765448   -1.43430800   -0.83824700
Ge   15.90967000   22.64765000   19.17237000      0.497265    1.48947200    0.15719200
Ge   18.43608000    4.82152000   11.34509000      0.883037    0.91145500   -0.40850100
Ge   19.89876000    9.29458000   16.90781000     -0.322121   -0.43724100    0.25791000
Ge   19.81023000   12.21050000    9.87222000      2.290606   -0.05643000   -0.09770200
Ge   18.17618000   11.68829000   18.03736000      0.252200    0.25511500    0.15857800
Ge   15.24757000   19.04435000    8.72389000     -0.537365    1.07230400   -0.25728400
Ge   18.71460000   15.97103000   19.18102000      0.820950   -0.24153500   -0.15840700
Ge   19.96727000    2.06737000   12.47617000     -0.261138   -0.82517900   -0.36745800
Ge   20.41573000    4.36148000    1.89006000     -1.111441   -0.83564100   -0.04119900
Ge   23.36678000    5.67634000    9.08914000      0.606662    0.39359400   -0.84367900
Ge    2.08530000    3.35492000    4.86193000      0.883621    0.61619400    0.63479500
Ge    2.09653000    9.41278000    9.64512000     -0.747756    1.81168800    0.76737600
Ge    0.22411000   10.05513000   19.57143000     -0.230524    0.43032100   -0.60517300
Ge   21.99445000   15.94127000    9.41836000     -0.308870    0.49918800   -0.89925400
Ge    1.30623000   14.42833000   19.16938000      0.126887    0.83877800   -0.63248800
Ge   19.07675000    0.98659000    9.77275000     -0.084524    0.33336400    0.55635800
Ge    0.69648000   21.47023000    0.02320000      0.444356   -0.42596800    0.88198300
Ge    4.42065000    7.89457000    8.74915000      1.033723   -1.04936000   -0.28430200
Ge    1.90403000    6.56211000   19.41369000      0.393830    1.48074700   -0.02972100
Ge    2.07352000   10.30622000    5.72834000     -0.355388   -0.10418600   -1.26777400
Ge    4.50843000   12.46933000   16.15197000     -1.031826    0.39805300   -0.02980800
Ge    5.40995000   17.79605000    3.37808000      0.855299    1.21243100    2.46687900
Ge    0.07651000   17.51088000   18.34305000      0.756004   -0.12277000    1.30928600
Ge    5.42713000   20.17061000    8.91122000     -0.568205   -0.16266200   -0.43679600
Ge    4.11146000   23.05610000   17.99629000     -0.307867   -0.13676000    0.42535300
Ge    9.80808000    2.72216000    7.25902000      0.574928   -1.31433700   -0.43390500
Ge    6.92861000    8.84321000   18.68712000      0.463028   -0.17704700    0.59033800
Ge    5.97427000   12.62903000    6.49602000      0.031077   -0.50443700   -0.50649300
Ge    8.37692000    9.87862000    1.90439000      0.406858   -0.82124600   -0.99091800
Ge    8.09868000   18.36933000    6.78776000     -1.535584   -0.59309900   -0.72437400
Ge    4.39172000   19.78378000   18.67129000      0.476480    0.65526800    1.57748700
Ge   10.87808000   22.84452000    6.12921000      1.735768   -0.61102900   -0.60208200
Ge    9.98164000    1.66699000   17.84189000      2.286652   -0.23705800   -1.71159800
Ge   12.93247000    6.66031000    6.02082000     -0.638493   -0.32763000   -1.09347000
Ge   13.75434000    8.56192000   18.74110000      1.564220   -0.43229400    0.17139100
Ge   16.14850000   11.93441000    6.82760000      0.569803    0.73610300    0.29069000
Ge   16.46062000   15.46116000   16.02284000      0.599807   -0.11004700   -0.25922100
Ge   12.57821000   16.89729000    5.12575000     -0.053225    0.14117500   -0.59858400
Ge   15.11092000   18.56740000   16.73307000     -0.144264    1.53695800   -0.78614900
Ge   15.34434000    0.38062000    9.91271000     -0.490300   -0.70068600   -0.07225100
Ge   16.43190000    4.11048000   18.58640000      0.193606    0.07735000   -0.13335600
Ge   19.92790000    5.63187000    7.86700000      0.322191    0.05222600    1.10338900
Ge   21.50305000    5.33983000   16.39891000     -1.583364    0.05460900   -0.41605300
Ge   19.70139000    8.72134000    7.88867000      0.242596   -0.44675300   -0.06603900
Ge   22.06609000   12.80608000   18.81169000      0.145980   -0.24240400   -0.32715800
Ge   19.46931000   17.81958000    7.57792000     -0.386831   -0.19298500   -0.64423300
Ge   20.80214000   19.04842000   16.30870000      0.063836   -1.17921400    0.05771400
Ge   19.67187000    1.04100000    5.39698000      0.054632   -0.95862600    0.46808600
Ge   19.83328000   21.05027000    0.83506000      1.037691    1.63966600   -0.68375000
Ge    6.07053000    3.19492000    9.19112000     -0.332229    0.31635100    0.21373900
Ge    4.61515000    3.43178000   17.27497000     -1.395485    1.01972500   -0.50629400
Ge    3.24982000    6.64216000    5.27416000      0.103113    0.40236000    0.25834700
Ge    2.36592000    9.59315000   13.36980000      0.651166    0.07982200    0.76690400
Ge    1.98076000   17.44133000    6.08626000      0.203319   -0.23096500    0.24917800
Ge    2.05449000   14.95650000   15.73286000      0.342921    0.18748800   -0.09240700
Ge    0.23782000   19.67206000    9.32682000      0.100208    0.10767700    0.00482300
Ge    3.18422000   21.03849000   14.21569000     -0.405132    0.44020500   -0.47831900
Ge    9.60073000    2.98069000    2.03058000      0.178383    0.64920400    0.65445600
Ge    8.52935000    1.96549000   15.70477000      0.319943    0.62340800   -0.33371600
Ge    9.61699000   11.06878000    5.06015000     -1.507136   -0.34872900   -0.04422400
Ge    7.42336000   10.25837000   15.71406000     -1.364099    1.40448700   -0.36896300
Ge    9.15997000   14.19925000    7.06966000     -0.368738   -0.66294400    0.85054200
Ge   14.18539000   11.66023000   15.91829000      0.767606    0.04017600   -0.39224800
Ge    7.86390000   21.84293000    5.32728000     -0.237671   -0.61236100   -0.52861000
Ge    8.33491000   19.85784000   15.43212000      0.653206    0.41544800    0.47838700
Ge   14.61041000    1.84102000    6.45756000     -0.426736   -0.05953800    0.40373700
Ge   12.62613000    2.54159000   15.88427000      0.408240    0.29274700   -0.00342500
Ge   15.67962000    9.69707000    4.77352000     -2.340351   -0.45360300   -2.13957700
Ge   15.77840000    8.52060000   15.13070000     -0.378973   -1.06620000   -0.01556200
Ge   16.05248000   13.63506000    3.78690000     -0.118698   -0.32871600    0.20851200
Ge   13.18783000   16.27545000   15.23495000     -0.243934   -0.40288000    0.10190800
Ge   13.90705000   19.30462000    0.54391000      0.240661    0.51825500    0.21452400
Ge    9.95962000   21.79437000   19.09517000      0.238654   -0.82528400    1.32105500
Ge   23.45775000    4.02518000    4.61943000     -1.343154    0.36597900   -0.74403500
Ge   21.16635000    2.60321000   15.19955000      0.749709   -0.49999800    0.02576000
Ge   22.26714000    9.59040000    6.60593000      0.166409   -0.05792600    0.48319500
Ge   20.61702000    9.92165000   12.89085000     -0.395578   -0.38822600    1.43063900
Ge   22.41749000   16.76205000    3.26929000     -0.231111   -0.25076400   -0.23113900
Ge   19.56168000   14.26559000   13.74451000      0.136029   -0.06275200    0.20496600
Ge   20.50136000   20.54588000    6.26397000      0.555040   -0.22339600   -0.29962500
Ge   20.41815000   22.98253000   17.88008000      0.780302    0.78694400    0.01794100
Ge    6.15752000    4.54934000    6.14440000     -1.471690   -0.03885600   -1.38711700
Ge    4.30399000    1.24091000   14.05755000     -0.582345   -0.24128400   -1.16393400
Ge    5.30373000   11.54753000    3.68948000     -0.175182   -0.38266000   -0.14550400
Ge    7.74148000    8.35167000   13.13668000      0.535540    0.30020000   -0.48585300
Ge    5.51006000   15.64772000    0.72867000     -0.451762   -1.28036900   -1.15658200
Ge    3.17634000   12.94737000   12.27452000      0.075651   -0.08263900   -0.07550800
Ge    4.58610000   22.66116000    6.34739000     -0.311997   -0.48587400    0.69318800
Ge    6.69411000   20.63467000   12.79851000      0.384603   -0.51020000   -0.34468800
Ge   15.41620000    5.34328000    3.02185000      0.301715    0.44615800   -0.71054300
Ge   13.47795000    0.03427000   13.15791000      0.276345   -0.92138900    0.18230200
Ge   11.38919000    9.75437000    0.06554000     -1.113938    0.99978200    0.85252700
Ge   13.67505000    9.71463000   12.63240000     -0.057322   -0.79359400    0.10204900
Ge   11.06375000   13.65827000    1.94081000     -0.569909   -0.95534400    0.48541700
Ge    7.60526000   17.13248000   10.74652000     -0.228171   -0.68749100    1.10154600
Ge   12.90022000   23.24072000    2.16055000     -0.447856   -0.19786100    0.09086100
Ge   11.15523000   22.20923000   13.24802000     -0.714873    0.50168700    0.55538700
Ge    0.37935000    1.75810000   18.54495000     -0.777590    0.09066800   -0.60452500
Ge   12.80897000    6.08342000   13.04440000      0.202792   -0.24702600   -0.92405200
Ge   17.68918000    8.67967000   19.57057000      0.027444    0.07359900    0.27555000
Ge   12.86062000    6.84398000    8.50440000      0.395867   -1.44880900    0.27984000
Ge   20.45571000   13.20642000    3.00469000      1.064768   -0.59438100   -0.25657200
Ge   17.07368000   16.15043000    8.40534000     -1.330128    0.04503100   -0.45548300
Ge   17.32174000   21.44598000    2.93367000     -0.361093   -0.46313100    0.19492600
Ge   18.86119000   21.38253000   12.89691000     -0.427099   -0.31513400   -0.05072100
Ge    0.42125000    1.35321000    3.08256000     -0.508572   -0.35416600    0.02317900
Ge   23.01987000    2.32922000   10.80145000     -2.992634    0.91129600    0.35339900
Ge   23.14954000    9.35295000    3.29302000     -0.871497    0.84676900   -0.16620900
Ge   23.31884000    8.94638000   12.45085000      0.068283    0.84356500    1.43180300
Ge    1.96204000   13.32916000    4.23071000      0.122035    0.65468500    0.49798800
Ge   23.67636000   15.99526000   11.72700000     -0.132562   -0.28236400   -0.37754300
Ge    0.46463000   21.12273000    4.35307000     -0.699886    0.76310700   -1.23439700
Ge   20.82207000   18.26216000   12.78378000     -0.730324    0.17444900    0.02852200
Se    2.47362000    0.80096000   19.66470000     -0.057990   -0.55512600   -0.02734400
Se    1.36699000    1.64588000   10.38510000      3.259973   -0.54542800   -0.58511100
Se    0.41660000    8.28930000    1.23217000      0.759256   -1.95707300   -0.15493000
Se    0.19696000    8.02622000   10.38634000      0.414264   -0.35179300   -0.52082700
Se   22.16518000   11.43253000    1.50765000      0.444745    0.07921300   -0.23363200
Se    2.21946000   14.25249000    9.18923000      0.156342    0.22509800    0.05307700
Se    2.08307000   19.65661000    3.33740000      0.680487    0.01870700   -0.59693300
Se   23.23014000   18.62785000   11.52462000      0.490936   -0.11044000    0.24474400
Se    6.71583000    3.03132000    2.95689000      0.505574   -1.06724800   -1.16708600
Se    5.35013000    3.53797000   13.20443000     -2.187011    0.65260800    0.32103700
Se    9.45820000    5.44669000    4.05471000     -1.098865    0.05771700   -1.00606100
Se    7.72975000    9.27870000   10.44194000      0.036579   -1.09250300    0.59137000
Se    7.70867000   11.54412000   19.88686000      0.592410   -1.22939800    0.48427900
Se    6.50576000   15.54869000   12.35893000      0.243826    0.40096100   -0.87032500
Se    7.23221000   20.31386000    3.07735000     -1.132490    0.10524700    0.24188500
Se    9.86844000   20.66201000   11.90590000     -0.752478   -0.43729500   -1.06517700
Se   13.76352000    0.25980000   19.81503000     -0.600010    0.22153600   -0.58670900
Se   12.92494000    2.24659000   12.24091000     -0.076653    0.44098600   -0.83794200
Se   11.50678000    8.19429000   18.08047000     -0.081443    0.15486400   -0.70060100
Se    9.79111000    9.38907000    8.36342000     -0.707108    0.61130500   -1.73200000
Se   13.44813000   13.21478000    1.12631000      0.314123    0.88275800   -0.32903800
Se   13.11744000    9.01604000    8.85601000     -0.111730    1.78604500    1.02291200
Se   15.54529000   16.97270000    1.54957000      0.029365   -0.31012700   -1.02719800
Se   12.38124000   18.74096000   10.68242000      0.102214   -0.80375300    0.39359000
Se   18.19732000    4.30326000    3.85175000      0.277441   -0.32092000   -0.04737000
Se   14.01395000    3.72783000   13.62039000     -0.243362    0.38436300    1.12203300
Se   15.01075000    5.18010000   16.57774000     -0.075493    0.23325000   -0.17041200
Se   19.73085000    4.38225000   13.88748000     -0.794464    0.09672200    0.40685100
Se   19.66653000    9.80719000    0.91539000      0.701210   -0.78800700   -0.44270900
Se   17.33094000   19.28529000    7.35655000      0.129342   -0.97232400    0.55373500
Se   20.45455000   17.59022000    0.37046000      0.124497   -0.37194200   -0.35949700
Se   19.27301000   19.53879000   10.96485000      0.848149    0.08281300    0.52955600
Se    2.66753000    1.01634000    4.57184000     -0.080393    0.25226200   -0.71711400
Se    2.62796000    5.32346000   12.28183000      0.321021    0.04092400   -0.07488300
Se    5.62090000   11.61118000    1.02805000     -0.857439    0.16944800   -0.18431900
Se    4.76116000   12.58525000   10.30100000     -0.606151   -0.59274000    0.69302100
Se    3.89906000   13.86130000    1.60115000     -0.143930    0.16979600   -0.39539200
Se    3.09599000   15.37557000   11.79527000     -0.292900    1.04135000    0.03951000
Se    5.75990000   21.79270000   19.39590000     -0.502791   -0.17973100   -0.20753400
Se    4.67449000   20.52500000   11.46083000     -0.001466    0.33889900   -0.47260300
Se   12.75140000    6.59959000    2.12614000      0.206292    0.05088700   -0.41197600
Se    8.53942000    3.35637000   10.98915000     -0.371809   -0.98373700   -0.44488200
Se   10.89552000   12.23636000   18.64032000      0.166050   -0.46810300   -0.63228200
Se   11.12519000   11.96729000   11.19736000     -0.076246   -0.99107500   -0.10173400
Se   11.59092000   15.86833000    2.56178000      0.759305    1.20290500   -0.18998000
Se   11.84430000   14.51573000   13.74101000     -0.097784    0.24793200    0.01997700
Se   11.57914000   23.43068000   18.19858000      0.411223    0.43023200   -0.68540100
Se    9.88060000   23.66524000   11.16408000     -0.670994   -0.47845800    1.34088400
Se   12.07342000    3.12823000   18.23274000     -0.652793    0.04145700   -0.66043200
Se   17.65148000    7.82938000    9.49120000     -0.099046    0.23891100   -0.18519100
Se   16.85570000    8.96793000    2.34528000     -0.298630    0.11532600   -0.21140500
Se   17.86709000   13.48260000   10.45440000     -1.156680    0.13358900    0.68247800
Se   18.59950000   14.57964000    2.43034000     -0.695093    0.44591000   -0.43469700
Se   14.53791000   15.14473000    7.66666000      0.489690    0.33731900   -0.06837600
Se   18.12673000   22.94955000    1.18042000     -0.135905   -0.32450000   -0.13886600
Se   17.34468000   22.95160000   10.83702000      0.007840    0.11586900    0.72659500
Se    0.06928000    3.61954000    1.98597000     -0.168418   -0.47485100    0.50913500
Se   23.06020000    4.71397000   11.25043000     -0.234412   -1.10922200    0.37184200
Se   21.77829000    6.16257000    2.66631000      0.347790    0.29747500   -0.23355300
Se   20.88005000   12.26567000   12.41771000      0.058379    0.38696900   -0.91123500
Se   22.55752000   14.43416000    2.39481000     -0.510658   -0.09585100    0.40606600
Se   20.79429000   15.82690000   11.86296000      0.364870   -0.14011500   -0.15472800
Se   23.19218000   22.54349000    2.50370000      0.431186   -0.11215200   -0.18625300
Se   21.31794000   23.39465000   15.32148000      0.551943    0.11224700    1.04773500
Se    4.18427000    5.20792000    9.23953000      0.394854    0.90177300    1.27107800
Se    4.85584000    6.01142000   18.20535000     -0.256777    0.06828200   -0.12729300
Se    3.76998000   11.31941000    7.21807000      1.594309    0.53269400    0.90389500
Se    3.74178000    7.88792000   14.89235000     -0.338890   -0.35362600   -0.09448600
Se    5.61985000   19.85778000    6.39464000      0.190285    0.65371800   -0.10035600
Se   22.68398000   15.18318000   19.23277000     -0.111577    0.84965800    0.05965600
Se    0.66366000   21.76184000   11.23947000      0.147388    0.19950800   -0.41939500
Se    2.59891000   21.00042000   17.69103000     -0.291416    0.15156100   -0.76248300
Se    7.90354000    4.14883000    7.60266000     -0.034498    0.66638000    1.50849100
Se    5.88839000    4.70006000   19.83894000      0.422685    0.09927400    0.64136700
Se    7.83948000   10.43118000    7.09064000      0.069307    0.02886100   -0.48347000
Se    3.82523000   10.01608000   18.70609000     -0.661661   -0.59259500    0.36151500
Se    6.27575000   17.80584000    8.94489000      0.013761   -0.27593400   -0.63893400
Se    6.25151000   16.15325000   18.12162000      1.189181   -1.73487400    1.37688000
Se    9.61415000   19.57234000    8.06070000      0.948274    1.26497500    0.73545700
Se    8.78765000    2.02804000   19.71544000     -1.546710    0.11952400    1.93607900
Se   14.02321000    2.47470000    9.19027000     -0.191342   -0.31641900   -0.48082400
Se    8.93685000    4.70912000   18.47680000     -0.441392    0.41861000   -0.67606000
Se   10.65863000    6.06374000    8.79333000     -0.337728   -0.38299300   -0.42669500
Se   16.63105000   12.83520000   16.02717000      0.038670    0.25704800    0.79836200
Se   13.39741000   17.66935000    7.47539000     -0.574281    0.22950300   -0.12352400
Se   14.83810000   16.47112000   17.78054000     -0.087594   -1.14608200    0.32929700
Se   16.01819000   23.06099000    7.55260000     -1.106615    0.04200700   -0.42170000
Se   17.49510000    1.69552000   17.05903000      1.227849    0.42035600    0.28060000
Se   16.46674000    3.70801000   11.83850000     -0.304327   -0.47837800    0.21729500
Se   21.21854000    3.32167000   17.56886000     -0.228685    0.29615500    0.65169100
Se   18.17839000    8.78838000   12.56225000      0.437797    2.21063800   -1.26752500
Se   21.21774000   10.65610000   15.45083000     -0.179391   -0.33371600   -0.80575000
Se   15.90890000   17.40622000   10.35654000      0.443762   -0.42762500    1.08405900
Se   19.79546000   13.29779000   19.48764000     -1.126830    0.31635200   -0.43286500
Se   18.82497000   23.23465000    7.79184000      0.916308   -0.54751600   -0.30756900
Se   19.21181000   19.05271000    1.76775000     -1.141186   -1.31462400    1.03308500
Se    5.97359000    0.18015000    8.45705000     -0.808576    0.62714800    0.11837400
Se    3.79143000    2.91469000   19.63969000     -0.218358   -0.09533700    0.63229100
Se    7.50368000    6.85361000   10.06986000     -1.056629    0.76878000   -0.21861600
Se    4.31286000    8.26248000    0.34365000     -0.444625   -0.32964000   -0.54613200
Se    4.55193000   16.74760000    5.91808000     -0.322542   -0.13056100   -0.24127200
Se    6.82817000   12.54521000   16.90020000      0.621509   -0.97489200   -0.61813800
Se    2.83258000   18.81404000    8.46076000     -0.224091    1.09109500    0.00102900
Se    0.61181000   18.90059000    0.66119000     -0.426702   -0.17810500   -0.76102900
Se    9.03272000    0.24622000    7.01058000     -0.779061    1.42859000    0.57754300
Se   12.65241000    4.40929000    1.21915000     -0.005437   -0.62994000    0.56532100
Se   11.31040000    2.39811000    9.31859000      0.467635    1.38077200   -0.13702200
Se    8.30989000    7.59752000    0.85668000     -0.347613    0.93069000   -0.55665300
Se   11.04908000   13.14644000    8.27128000     -0.247549   -0.31126100   -0.49572100
Se    9.38510000   14.50988000    0.10588000     -0.319418    0.32207000   -0.36008900
Se   13.48123000   22.47309000   10.96354000      0.520262    0.94783700   -0.55681000
Se   11.78005000   14.50610000   16.69696000      0.982366   -0.58704600   -0.33169000
Se   17.61266000    2.28646000    8.22120000     -0.046463    1.09585900    0.22321500
Se   17.69096000    4.84996000    0.84331000      0.998913    0.45425200    0.42692400
Se   16.00517000    7.35568000    7.75972000     -0.064081   -0.08359900    0.56460300
Se   15.46640000    9.84602000   17.32533000     -0.278002   -0.14829400    0.32971900
Se   14.81756000   13.03939000    8.60680000      0.525672   -0.70838500    0.74870000
Se   16.50902000   12.28124000   19.85578000     -0.556960    0.18549800   -0.34064500
Se   14.73218000   19.00234000    4.34946000      0.743123   -0.10675200    0.69898000
Se   20.19869000   20.55507000   18.11927000     -0.515932    0.43633300    0.79717500
Se   21.82307000    2.07782000    8.57012000     -0.203003   -0.01699000    0.10743000
Se    0.28769000    0.97977000   16.04525000      0.136313    0.06280400    0.57390300
Se   21.21935000    6.86250000    9.71742000     -1.587227    0.44144500   -1.06360900
Se   22.95958000    6.99319000   17.01817000      1.167809    1.07766400    0.61623400
Se    0.26081000   10.91214000    8.13290000     -0.272072    0.59209200    0.18682400
Se   21.61221000    8.29496000   18.49779000      0.065389    0.44315400    0.45919300
Se   21.60119000   18.49357000    8.34359000      0.632789   -1.13863300    0.22226100
Se   20.43415000   16.30721000   17.10854000     -1.267205    0.18457600    0.87556300
Se    0.98776000   23.26180000    9.35134000     -0.242771   -0.46474600   -0.16684600
Se    2.55072000   22.98501000   12.46606000      0.347487   -0.10562700    1.13392600
Se    2.27093000    8.48969000    7.45857000      0.100155   -2.40564000   -0.23500800
Se    1.78624000    8.72580000   17.72434000      0.528764   -0.17803900    0.55559000
Se    0.98044000   16.14919000    8.33982000     -0.301311   -0.04592500    0.00444900
Se    0.97087000   12.58109000   17.82881000      0.947510   -1.28210400   -0.53973800
Se    2.55177000   20.56991000    6.23042000      0.081377   -0.46946900    1.05113700
Se   23.31626000   19.03537000   16.63371000     -0.022722    0.47459400   -0.62605700
Se    5.82608000   22.89013000    4.35844000      0.675255    0.35952700   -0.74221200
Se    6.10692000    1.60627000   17.33129000      1.163150   -0.88257600    0.23058400
Se   10.31215000    6.88360000    5.52939000      0.814887    1.69537500    1.26896200
Se    5.93141000    7.98589000   15.86499000      0.179488    1.21553400   -0.66567500
Se    7.09613000   13.47872000    8.50367000      0.506788    0.85337600    0.13722500
Se    8.26060000   18.58092000   12.58404000      0.262482    0.75158000    0.41029700
Se    7.32931000   16.49960000    3.61561000      0.798248   -0.69275300   -0.22079200
Se    9.47106000   16.71650000   15.68059000     -0.422781    1.35813700   -0.90357500
Se   14.66250000   21.95021000    5.79032000      0.708487    0.22068100   -0.00215300
Se   14.80950000   23.11212000   16.18036000      0.029231    0.81228800    0.12429400
Se   12.85844000    8.89766000    5.20004000      0.672564   -0.05937700   -0.32020100
Se   10.46662000    7.79435000   13.12736000     -0.687350    0.16395500    0.17067800
Se   14.32601000   12.51686000    5.45437000      0.084434   -0.39059300   -1.58013400
Se   15.13370000   15.17266000   13.86921000     -0.681697    0.38534800    0.75557700
Se   12.52228000   19.24170000    3.92045000     -0.966773   -0.62404200   -0.05135800
Se   15.79507000   20.36321000   18.94367000     -0.599392   -1.96876900   -0.32377400
Se   17.61328000    2.01249000    4.42981000     -0.045665    0.50204400   -0.11951200
Se   19.20206000    1.20000000   18.89718000     -0.310461   -0.21079700   -0.68019500
Se   19.58669000    6.87948000    5.94594000     -0.074036    0.76317800    0.27648000
Se   19.27436000    6.91601000   16.13305000      0.730078   -0.26923600   -0.27159800
Se   20.04496000   12.16195000    5.18500000      0.499000   -0.38778900    0.16338700
Se   17.28037000   13.32689000   12.81929000      0.319047    0.38179400   -0.10908500
Se   19.60977000   18.38651000    5.19172000     -0.172683   -0.10701500    0.05266700
Se   21.05736000   20.89224000   14.78052000     -0.171016   -0.18842500   -1.18227600
Se    5.69393000    6.93106000    6.28114000     -0.571925    0.17580100    0.34446900
Se    2.74936000    2.46981000   15.52198000     -0.365841    0.10024000    0.82045100
Se    3.56453000    9.59691000    3.54971000     -0.253746    0.48381500    0.40064400
Se    4.35790000   11.41390000   13.82959000     -0.280230   -0.54467600   -0.25657200
Se    4.58477000   14.42268000    5.20016000     -0.335945    0.11029400   -0.03649300
Se    2.70651000   16.21864000   18.30631000     -1.065370   -0.15995500   -0.25045000
Se    1.49359000   22.82003000    5.75136000      0.065543   -0.36586400    0.72717900
Se    2.59714000   19.11598000   12.35102000     -0.461294    0.97530500   -0.11056500
Se   12.31249000    1.13019000    5.40117000      0.294937    0.37039200    0.53175600
Se    8.60847000    4.81120000   16.10965000      0.089213   -0.66640500    0.77984900
Se   11.15841000   10.91761000    7.04328000      1.576208    0.73138400    0.74998700
Se   10.66055000   11.84822000   16.14998000      0.314196    0.07579700    1.16648100
Se    9.58364000   15.99751000   10.34686000      0.764500    0.01041300   -0.58147800
Se   11.77600000   19.66373000   19.09271000     -0.371205    0.91343400   -0.10775200
Se   10.07281000   22.60536000    3.63303000      0.351172   -0.62598100    0.54368700
Se    8.45046000   20.02943000   18.15411000     -0.461056   -0.13148300   -0.98980200
Se   13.75613000    4.65951000    4.63328000     -0.219522    0.01858200    1.33246800
Se   14.37153000    6.03109000   18.72248000     -0.446410   -0.06991700    0.18136000
Se   17.28080000    9.75516000    6.37435000      1.360184    0.27713200    1.70931100
Se   17.32086000    7.00938000   13.51975000     -0.151345   -1.38586400    0.67296500
Se   17.87870000   13.44291000    5.63880000     -1.249097    0.15309200    0.17795000
Se   12.89242000   18.70112000   15.26437000      0.553277   -0.41438700    0.20927600
Se   16.06977000   23.45973000    3.97686000      0.181425   -0.41551400    1.32617800
Se   17.17915000    3.88981000   14.14355000      0.187652   -0.58145500    0.05701000
Se   21.96950000    4.37858000    7.32934000     -0.143402   -1.16235600    0.01092400
Se   22.33999000    4.94723000   14.12331000      0.178315   -0.05028400    0.53263500
Se   17.85956000   10.89854000   10.17342000     -1.086454   -0.42658700   -0.27218600
Se   21.78342000   13.83514000   15.79216000     -0.191361   -0.19764000   -0.24092700
Se   19.35909000   15.30897000    7.82809000      0.943393    0.56733700    0.32505800
Se   22.46043000   16.13056000   15.64875000      0.929992    0.23148700   -0.50479400
Se   21.27787000   22.78868000    8.44495000      0.206349   -0.14396400    0.06277400
Se   22.05962000    0.18286000   19.52462000      0.298830   -0.14714100   -0.51279300
Se    4.33714000    2.92702000    7.05215000     -0.023765    0.00854800   -0.32437400
Se    5.56445000   23.54666000   15.71501000      0.437643   -0.25522500   -0.04280300
Se    3.42025000    5.01565000    3.31822000      0.422831   -0.33067400    0.47196000
Se    3.94534000    8.68513000   11.36399000      0.784898   -0.60162000   -0.13271200
Se    1.09175000   11.14057000    2.55494000      0.260917    0.29312100   -0.38355700
Se    4.33876000   14.64330000   14.74815000     -0.334254   -0.09121300    0.59036700
Se    4.50567000   17.62924000    1.33272000     -1.221133    0.75903400   -1.79726900
Se    3.98188000   17.58864000   13.20369000      0.589288   -1.36069400    0.36717100
Se    8.94912000    0.68693000    2.72630000     -0.967967   -0.05657400   -0.25558500
Se   10.79402000    1.87153000   14.51827000     -0.547153   -0.21823400   -0.00796100
Se   10.73423000    9.80589000    2.55154000     -0.464629    0.21784400   -0.07309500
Se    8.75550000    8.73661000   16.71499000      1.033064   -0.86141000    1.17004100
Se    8.57840000   13.37532000    4.90517000      0.463356   -0.16248000   -0.17175100
Se   11.43480000   10.69591000   13.26114000      0.259106    0.44833900    0.40491100
Se    9.15472000   19.73025000    2.05059000      1.224954    0.05289000   -0.18112200
Se    9.47270000   22.25919000   15.13040000     -0.133957   -0.27381900    0.11172300
Se   17.67010000    4.88991000    8.91708000      0.695619   -1.32808500   -0.64015100
Se   15.14431000    1.90420000   16.61151000     -0.743829   -1.05885800    0.18521100
Se   16.79588000    7.29280000    4.02965000     -0.197712   -0.47651400   -0.04119100
Se   13.33011000    7.78949000   14.78719000      0.131664    0.72490800   -0.03058100
Se   17.43632000   11.93849000    2.08117000     -0.238717   -0.10158400    0.06317400
Se   17.64555000   18.54730000   15.57989000     -0.028389   -0.33250700   -0.60569300
Se   15.34638000   16.27289000    3.69486000     -0.159463    0.01891400    1.42231600
Se   16.67971000   20.35138000   14.23419000      0.702951   -0.03927000    0.00752300
Se   22.49698000    1.73374000    5.02325000      0.683424    0.04030800   -0.70452700
Se   22.21719000    0.96468000   12.70618000      0.141093    0.95168500   -1.01021900
Se    0.03074000    8.05363000    5.23821000      0.370584   -0.51922600    0.22258400
Se   21.50655000    7.55079000   13.08367000     -0.396464   -0.71601700    0.10745100
Se    1.36969000   15.96462000    4.15986000     -0.377095   -0.36284000    0.38044000
Se    0.66724000   12.89823000   15.13165000     -0.166530   -0.39589200   -0.79822200
Se   22.52144000   19.55598000    4.79573000     -0.774558   -0.08541300    0.52355600
Se   21.46394000   21.03958000   10.34130000     -0.591610    0.46254200    0.13518700
Se    2.19958000    4.31342000    7.47424000      0.608905   -0.04233100   -1.06945200
Se    2.08049000    3.18808000   12.83071000      0.336099    0.49514900    0.09921900
Se   22.56579000   11.38754000    4.99951000     -0.456839    0.23198400   -0.22446700
Se    0.37109000    8.88508000   14.95243000      0.839224    0.32801300   -0.97582000
Se    1.52424000   14.73884000    1.56778000      0.924842   -0.21095100    0.78422000
Se    0.80118000   16.37200000   14.03406000     -0.051749    0.36709900    0.71083600
Se    3.22223000   20.81219000    1.54435000     -0.430183    0.17302500   -0.09502600
Se    5.24367000   17.89810000   17.27447000     -0.958013    1.31390800   -1.43087000
Se   10.46219000    3.61852000    5.03444000      0.946329   -1.76231400   -0.17686000
Se    7.33718000    2.64123000   13.09296000      2.491840   -0.93047100    0.06495500
Se    7.17353000    9.89899000    3.94895000     -0.029538   -0.13807200    0.12301100
Se    8.14356000   10.76997000   13.50304000     -0.459453   -0.02472600    0.26800000
Se    7.52970000   14.70047000    1.77721000      0.600152    0.45506400    0.38066000
Se    9.44654000   14.93471000   14.08341000      0.205328    0.48409200   -0.32141300
Se    7.32603000   22.02709000    8.59082000      0.687126   -0.81378600    1.18603500
Se    5.74402000   20.30565000   14.97317000     -0.027445    0.18422900    0.44097500
Se   14.82085000    1.09400000    2.55468000     -0.127552    0.48320300   -0.54960500
Se   10.43483000    5.35391000   13.60269000     -0.350520   -0.01972200   -0.13336100
Se   13.68444000    9.85787000    1.02994000      0.190477   -0.14663500   -1.39581600
Se   15.76584000   10.61214000   13.92110000     -0.632655    0.43344300   -0.29655100
Se    9.83591000   16.45763000    6.59288000      0.569959   -0.17400600   -0.14433600
Se   13.69302000   16.76956000   11.25043000     -0.459018    1.13956500   -0.31357800
Se   14.49517000   21.31132000    2.09490000      0.140740   -0.45883400   -0.10303300
Se   15.84674000   23.17935000   14.01407000      0.008898    0.02363800   -0.18355600
Se   18.18263000    6.20593000   18.58733000      0.182634   -0.35619200    0.62362100
Se   14.88589000    5.53798000    9.04585000     -0.336823    0.48592400   -0.42165500
Se   20.23852000    8.00889000    2.59133000     -0.293779    0.51649200    0.26921500
Se    0.63040000   12.96635000   12.52871000      0.373872   -0.52162200    0.53846000
Se   19.76899000   15.88004000    4.01501000      0.722345    0.76704000    0.42084100
Se   18.93484000   16.84893000   14.03800000     -0.527140    0.60297000   -0.07040500
Se   19.10843000   22.04963000    4.82066000      0.179869    0.80587800   -0.44280400
Se   19.28829000    0.16437000   14.13558000     -1.008638    0.80881200   -0.03433000
