384
23.69824000 23.69824000 19.89960000
Ge    5.59276000    6.08751000   12.14485000      0.648343   -0.55467400   -1.26667800
Ge    5.33592000    4.17325000    3.05620000     -0.880879    2.42404900   -0.82883800
Ge    3.00565000   11.98571000    6.99351000      0.308212    0.41866000    0.94542300
Ge    8.97717000   14.00578000   17.21615000      0.038156   -0.25933800   -0.16680200
Ge    5.19860000   15.74372000    9.69129000     -1.346621    0.08731500   -0.34446000
Ge    9.28013000   18.14711000   19.27217000      0.019527   -0.09660500   -0.25819500
Ge    7.66862000    0.09704000   11.16341000     -0.486736    0.01012000   -0.11535300
Ge    5.44587000    1.90275000    0.47460000     -0.063945    0.95192800   -0.51129300
Ge    8.56536000    4.56517000   11.64003000      0.748348    0.37684300   -0.40445600
Ge   11.22599000    5.02676000   18.31338000      0.879193    0.71910100    0.65671200
Ge   12.17325000    9.35791000   11.39729000     -0.360788   -2.10950800    0.99277900
Ge   13.44391000   12.74711000   18.66111000     -0.102741   -0.01629600    0.39485000
Ge   11.22810000   17.89756000    8.95649000      0.394236   -0.15432000   -0.67003300
Ge   13.45925000   16.56390000    1.01900000     -0.527546   -0.90275700   -0.86919700
Ge   11.24694000    0.45149000   10.09178000     -0.725988    1.66590500   -0.68007700
Ge   16.27867000   22.20632000   18.94993000     -0.357872    0.01914500    0.78133900
Ge   19.39610000    5.15096000   11.49524000     -0.664055   -0.42166700    0.80350600
Ge   19.54528000    8.44045000   17.50555000     -0.457745    0.13134500   -0.00958200
Ge   19.23853000   12.69965000   10.27407000      0.885019    0.78820000    0.14300500
Ge   18.23436000   12.05515000   18.53604000      0.327431    0.18360300   -0.27100200
Ge   14.57373000   18.33039000    9.21445000     -0.513589    0.25976300   -1.28690500
Ge   18.56828000   16.08947000   19.58586000      0.926720    0.33638400    0.12926300
Ge   19.28493000    1.26931000   11.00445000      0.649954    0.22061800   -0.20959000
Ge   18.61959000    3.50383000    2.18412000      0.731459    0.62683700   -0.00417200
Ge   23.30469000    5.95713000    9.18985000     -0.717116   -0.52724300   -0.43389500
Ge    0.93296000    3.68737000    3.51554000      1.338069    0.81589100   -0.60726200
Ge    1.83221000    9.52338000    9.54321000      0.168953   -0.53394800   -0.15466600
Ge    0.36670000    8.90243000   19.85060000      0.097254    0.21190400   -0.50399500
Ge   22.06049000   15.53770000    9.46406000     -0.200026    0.83493000   -0.79740600
Ge    1.63183000   14.53453000   19.49340000      0.305404    0.56934100   -0.22474200
Ge   20.81232000   23.04627000   10.12935000     -0.816464    0.58606700    0.07884800
Ge    1.75065000   21.45228000   19.80988000     -1.266720   -0.13245900    1.02680000
Ge    4.84290000    7.43919000    9.19302000      0.128722    0.53413700    0.20643000
Ge    2.35091000    6.30563000    0.04670000     -0.141924   -0.52522300   -0.49486300
Ge    1.43958000   10.60362000    4.79906000      0.054094    0.68168400   -0.65806900
Ge    4.47281000   13.02000000   15.68288000     -1.584078   -0.61774300   -0.08555900
Ge    5.82051000   20.05442000    2.82914000     -0.252940    0.12705400    0.75359600
Ge    0.54706000   17.99093000   18.27337000      0.715829   -0.52119900    1.89236600
Ge    5.47388000   20.51786000    8.86933000      0.173722   -0.07423600    0.19452400
Ge    3.43778000   23.21297000   17.72940000      0.540955    0.36966400   -1.02797400
Ge   10.65731000    2.39445000    6.91085000      0.640835    0.01319900   -0.17550700
Ge    6.84337000    7.94022000   19.18397000     -0.759853    0.14425900    0.27432000
Ge    6.39557000   12.39082000    6.57376000     -0.582234   -0.14396600    0.06215300
Ge    8.22589000    9.85176000    2.11937000      0.386547   -0.10412900   -0.33267000
Ge    6.76820000   17.74217000    6.80444000     -0.179984    0.64095100   -0.32348100
Ge    5.67596000   20.82131000   18.81340000     -0.042449   -1.11051600   -0.23521300
Ge   12.04679000   22.70074000    5.76064000      0.449153    0.82366000    0.53948400
Ge   10.47319000   23.61195000   17.09637000     -0.077673   -0.57119100   -0.52683600
Ge   12.50678000    6.86816000    6.26077000      1.208175   -0.31804800   -1.04746800
Ge   14.63355000    8.03230000   16.75723000      0.121382    0.26254200    0.92485200
Ge   15.68083000   12.00039000    6.01359000     -0.145517    1.01338000   -2.05281100
Ge   17.16045000   14.82660000   15.97845000     -0.606315    0.07583100   -0.54357100
Ge   12.04691000   16.01111000    5.44830000      0.719877    0.05602400   -0.17707100
Ge   14.98530000   19.07428000   17.02391000      0.460267    0.93359600   -1.08668600
Ge   15.68959000    0.31629000    9.41003000      0.481097   -0.78794200   -0.03698400
Ge   18.26099000    3.28265000   18.39914000      0.464635    0.42099500    0.62448800
Ge   19.62979000    5.53965000    8.35246000      0.297833    0.43541500    1.06848300
Ge   22.04331000    5.46205000   16.87123000     -0.188068   -1.15857100   -0.78895700
Ge   19.95821000    8.54041000    7.51444000      0.135382    0.54154100    0.31462500
Ge   22.31357000   13.74027000   17.98663000      1.336119   -1.29137000    0.17151200
Ge   19.58880000   16.91035000    7.45561000     -0.685588    0.21515700   -0.13276500
Ge   18.42222000   19.34698000   16.46930000     -0.416102   -1.25278100   -0.19514600
Ge   20.30739000   23.49180000    6.83416000      0.213300   -0.14671800   -0.56158500
Ge   19.86430000   21.21548000    0.80854000     -0.181532   -0.91959200    0.15517700
Ge    6.01220000    2.72610000    8.94765000      0.878653   -0.07797000   -0.06222100
Ge    3.08364000    3.17438000   16.79756000      1.001893   -0.89545800   -0.17322900
Ge    3.33318000    7.23064000    5.89134000     -0.152742    0.40652500   -0.50756600
Ge    3.11252000    8.80620000   14.23888000      0.394876    0.43188300   -0.80349000
Ge    1.48176000   17.22976000    6.49119000     -0.571851   -0.44698300    0.12534900
Ge    1.85876000   15.23183000   15.77552000      0.023998   -0.70082200    0.16441400
Ge    0.40027000   20.86796000   10.39336000      0.404531    0.26893000    0.21633500
Ge    5.09423000   20.79856000   16.16596000      0.198574    0.28120400   -0.19464800
Ge    7.30836000    2.16080000    3.43938000      1.189240   -0.09252900    0.14612100
Ge    8.08758000    2.28459000   15.53502000      1.247284    1.16602400   -0.91985200
Ge    8.77803000   10.19200000    5.00744000     -0.197617    0.82730800    0.50306000
Ge    9.26210000   10.79867000   14.77260000     -0.374453    0.09594500    0.44950800
Ge    9.13582000   14.34867000    6.51862000      1.054601    0.20685600   -1.18670600
Ge   13.92340000   12.56844000   15.62972000      0.409990    0.06324200   -0.17842900
Ge    8.64043000   21.11935000    4.86477000      0.225216    0.00196500   -1.00001100
Ge    8.65163000   20.07236000   16.17637000      0.684757    0.24889700    0.24319800
Ge   14.58090000    1.52168000    6.23487000     -0.441974    0.77476000    0.16048300
Ge   12.31602000    3.25219000   15.32234000      1.012700    0.24527600    0.43420500
Ge   15.37700000    8.44533000    4.76998000     -0.596859   -1.79245800   -0.43408600
Ge   15.49454000    9.02417000   13.75831000     -0.471358    2.06316900   -0.02951100
Ge   16.22290000   13.97704000    3.34556000     -0.264914   -0.52929200    0.27362200
Ge   13.77502000   15.94257000   16.60838000      2.010328    1.82533100   -1.17620800
Ge   13.32489000   19.12084000    0.48864000     -2.174324   -0.11232300    0.76615800
Ge   10.87347000   21.53174000   19.12891000     -0.195978   -0.24090700   -0.52936300
Ge   22.68687000    4.13626000    4.90260000     -1.739595    0.13357400    0.68031400
Ge   21.39342000    2.43791000   14.19801000      0.808141    0.35697500    0.18015500
Ge   22.33732000    9.69177000    6.44192000      0.057068   -0.25959400   -0.76703300
Ge   19.43887000    9.66345000   13.86425000     -0.295483    0.71815700   -0.62203600
Ge   22.01177000   16.51928000    2.38407000     -0.042338   -0.31422300   -0.09465700
Ge   19.42357000   15.76401000   14.85937000      0.108579   -0.19485700   -0.15200600
Ge   20.23783000   19.76388000    4.19467000      0.728090    0.60440300   -0.94347100
Ge   21.33056000    0.48013000   16.97514000      1.352803   -0.37702400   -0.40697000
Ge    6.09696000    4.74927000    5.65090000      0.296736   -2.47067400   -1.29529200
Ge    4.40604000    2.02115000   14.32565000      0.068583   -0.66502000    0.48886100
Ge    4.65115000   12.00250000    3.21265000      0.305932    0.15164000    0.21487100
Ge    7.55811000    8.42907000   13.15075000     -0.801810   -0.25115000    1.34768100
Ge    6.18624000   16.58815000    0.80726000      0.224636    0.69456800   -0.23199800
Ge    2.87688000   13.59295000   11.41272000      0.690777    0.10755700   -0.41834500
Ge    5.86943000   22.59896000    6.50810000     -0.578419   -0.50789500   -0.44065100
Ge    6.77278000   20.04774000   12.62558000     -0.329322    0.61163700   -0.09589300
Ge   15.23857000    4.55599000    3.85234000      0.491441    0.77085700   -0.28624000
Ge   12.48194000    0.52983000   12.42265000      0.676887   -0.18961400    0.50778800
Ge   11.39736000    8.22810000    0.11243000      0.352142    0.17919400    1.03485300
Ge   12.13715000    9.01860000   13.99353000     -0.210537   -0.50287600   -0.18860900
Ge   10.74982000   14.17752000    1.53895000      0.011678   -0.65620400   -0.05152000
Ge    7.97476000   16.42704000   10.48558000     -1.189243    1.24021300    1.41561800
Ge   13.02028000    0.37352000    1.75398000      0.008590   -0.05374700   -0.12188700
Ge   10.67968000   21.47171000   12.94727000      0.370889   -0.36808600   -0.42812700
Ge   23.51224000    2.25298000   18.48180000      0.538660    1.89719300   -0.82875800
Ge   12.26746000    5.08651000   11.28007000     -0.238873    0.38119900   -0.41228500
Ge   17.63575000    7.88801000   19.31521000      0.838992   -0.24681100    0.06752500
Ge   13.43171000    7.46145000    8.63260000     -0.395880    0.14690000    1.07296300
Ge   19.82076000   12.60691000    2.90753000     -0.506026    0.40817400   -0.66827400
Ge   16.33770000   14.63403000   10.23808000     -0.706931    0.23619400   -0.82890000
Ge   16.82556000   21.59155000    3.50589000      0.504171    0.37497700   -0.61361500
Ge   17.58069000   21.36693000   11.60513000      0.725741   -0.05334200    1.16404000
Ge    0.05944000    0.87280000    2.74241000      0.268477   -2.17539200    1.08031300
Ge   22.94696000    2.00629000   10.33683000      0.261949   -0.15496300    0.34128900
Ge   22.68480000    9.15816000    2.71350000      2.080440    1.16095400    0.27858400
Ge   22.15283000    9.50918000   11.93310000      0.254073   -0.88286700    0.31582800
Ge    0.40597000   13.60648000    4.25584000      0.010000    0.53441500   -0.08902300
Ge    0.21845000   16.01332000   12.07530000      0.191135   -0.31510900   -1.79411900
Ge    0.50233000   21.02799000    3.87253000      0.036184    0.35044300    0.10035500
Ge   21.65875000   18.74266000   13.13936000     -0.302294   -0.42849300   -0.00826800
Se    2.07266000    0.35220000   19.55184000     -0.990615    0.21707200    0.57125100
Se    1.64126000    2.37387000    9.73965000     -0.307495   -0.41868100    0.55912000
Se    1.05565000    7.51603000    1.87446000     -0.104411    0.06950200   -0.28259200
Se    0.31793000    7.50142000   11.00586000      0.613660    1.02656700    1.01412500
Se    1.17149000   11.14867000    0.38889000      0.881595    0.23050400    0.98404700
Se    3.20195000   13.84052000    8.78864000     -0.196553    0.49686100    0.30312500
Se    2.99943000   21.11525000    3.82491000     -0.410724   -0.40216400   -0.25466600
Se    0.21645000   19.01451000   12.08729000      0.487065    0.14387500   -0.45967900
Se    4.73818000    1.94838000    2.99966000      0.079327   -1.70538800   -0.07789800
Se    5.96557000    1.94239000   12.22750000     -0.222864   -0.18522500   -0.04560000
Se    8.03030000    4.87206000    3.20616000      0.831938   -0.34784700    0.62099100
Se    8.08271000    8.78150000   10.90439000      0.688779    0.48216500   -1.65737900
Se    7.89933000   11.61196000    0.51541000      0.229787    0.37900600   -0.31255300
Se    6.59231000   14.52515000   11.21945000      0.866834   -0.28548400    0.66940000
Se    7.91959000   21.88046000    2.54118000      0.423667   -0.82047200   -1.00214400
Se    8.80094000   20.73451000   11.29147000     -0.160643   -0.32576900    0.19751700
Se   14.76589000    1.16726000    0.04833000     -0.146103   -0.02162900    0.33989600
Se   14.00049000    2.63202000   11.53157000     -0.225387    0.27582800   -0.05440100
Se   11.86451000    7.62673000   17.69713000     -0.000628   -0.59485500   -1.22224200
Se    9.77281000   10.05716000    8.37481000     -0.204653    0.09687200   -0.38418300
Se   13.37688000   13.68170000    1.24288000     -0.264531    0.78526800   -0.71179300
Se   14.02254000    9.44266000   10.06312000      1.187908    0.10675900   -0.26505300
Se   15.57128000   17.47749000    1.80227000      0.488592   -0.33656800    1.26381200
Se   12.18897000   18.99657000   11.03913000      0.594128   -0.30953600    0.22885600
Se   17.75927000    3.98278000    4.52763000     -0.072930   -0.50382800   -0.23189100
Se   14.49827000    4.32950000   13.26799000     -1.475543    0.56222500   -0.34564700
Se   17.65050000    5.22062000   17.01074000     -1.218480    0.98787100   -0.11655100
Se   18.62132000    4.50616000   14.02033000      0.126965    0.25302100   -1.03117900
Se   19.25745000   10.05099000    0.21100000     -0.287370    0.14454300    0.74156100
Se   16.95405000   16.69010000    8.81541000      0.150618   -0.02637600   -0.10514900
Se   20.41471000   18.02621000    0.38759000     -1.104003   -0.47933300    0.88182700
Se   19.88300000   20.08342000   11.62122000      0.320164    0.11690800   -0.52558300
Se    2.09114000    1.69824000    3.96446000     -0.463683   -1.24997600    0.26559100
Se    4.10060000    5.74715000   13.92307000     -1.619703   -0.04907000    1.36828700
Se    5.65932000   12.24627000    0.93955000     -0.190633   -0.15154000   -1.09749400
Se    4.73073000   11.69748000   11.16965000     -0.143428    0.30726700    0.22644000
Se    4.28744000   15.51141000    1.60024000     -0.157277   -0.33293500   -0.23705800
Se    3.51464000   16.29458000   11.67491000     -0.511998    0.15810200   -0.45231900
Se    5.33636000   23.12009000   19.51595000      0.228812    0.00074700    0.25009400
Se    5.12089000   21.83757000   11.63598000      0.324770   -0.02445200    0.06490700
Se   12.82949000    5.70856000    0.45532000     -0.944452   -0.42503800    0.19412800
Se    8.62062000    2.41207000   10.36514000     -0.364654    0.26227800   -0.77110900
Se   10.95198000   10.91148000    0.21165000     -0.294278   -0.14728000    0.01858100
Se   11.30285000   11.52834000   11.59950000     -1.153118    1.21850200   -2.36795300
Se   11.34646000   16.40964000    2.27851000      0.289451    0.78622800    0.51426200
Se   11.53310000   15.04746000   13.60567000      0.900673   -0.14675500   -0.51636600
Se   12.70349000   23.33169000   18.25824000      0.102609    0.04545900    0.13005200
Se    9.40928000   23.56090000   12.90624000     -0.232739    0.34826900    0.27827800
Se   13.17904000    3.46450000   17.76350000     -0.987875    0.16218100   -0.52498700
Se   18.04751000    7.56927000    9.07960000      0.038909    0.11245100    0.47840800
Se   15.40112000    6.95698000   19.62052000     -1.272942    1.02929700    0.42277200
Se   18.03064000   13.90183000   12.24686000     -0.143004    0.13935300   -0.32267500
Se   18.64621000   14.98229000    2.33540000      0.576570    0.11230400   -0.35799100
Se   14.04915000   13.50891000    9.21075000      0.471483    0.52271300   -0.06965200
Se   17.94912000   22.57873000    1.16237000     -1.165019    0.52526600   -0.22256600
Se   16.21929000   21.42642000    9.77561000     -0.558417    0.33068500   -0.85636800
Se   23.54031000    2.71950000    1.51787000     -0.867675    2.16669600   -1.52180800
Se   21.59931000    4.04660000   10.39257000      0.093231    0.17129300    0.27980800
Se   21.08045000    5.59394000    3.36413000      0.733561   -1.16750600    0.07511300
Se   21.46039000   11.85239000   11.46024000      0.146788    0.54168400   -0.15892400
Se   22.66808000   13.97370000    1.96927000     -0.122189    0.24390300   -0.25024600
Se   21.55465000   16.31792000   11.94398000     -0.815452   -0.10681600    0.65475400
Se   22.95900000   22.22215000    2.19764000      0.418643    0.55872900   -1.20721200
Se   21.60442000   22.14036000   15.51080000     -0.528640    0.04014700    0.29212500
Se    4.93726000    4.97335000    9.74789000     -0.622702   -0.62719500    0.76895200
Se    4.18763000    5.47919000   17.21829000     -1.166502   -0.77277200   -0.22269100
Se    4.55281000   10.60354000    9.12259000     -0.396034   -0.42709900   -1.07615700
Se    3.84044000    9.35726000   16.83565000      0.204982    0.09159100    1.09867500
Se    5.22830000   20.08003000    6.43058000      0.047870   -0.51704300   -0.57725400
Se   22.98692000   15.81509000   19.09576000      0.837856    1.39687700   -0.04113500
Se    1.51617000   22.36350000   12.15552000     -0.491558   -0.00332100   -1.08040700
Se    2.49968000   20.89496000   17.70383000      0.552371   -0.52256100   -1.12261900
Se    7.59704000    3.39767000    6.98498000      0.128723   -0.11185600    0.31570700
Se    5.53278000    4.78574000    0.40066000     -0.115479    0.15375500    0.59373000
Se    7.49702000   10.13021000    7.19040000      0.303721   -0.25632800    0.60857200
Se    4.95631000   10.08412000   19.10633000      0.006235   -0.24912300   -0.08219000
Se    6.07114000   18.30954000    9.89560000      0.704470   -0.77012000   -0.19205000
Se    6.05225000   17.52312000   17.71406000     -0.996146   -0.13886500    0.85776300
Se    8.79683000   19.42485000    6.86191000      1.059072   -2.42175900   -0.99733700
Se    8.22281000    1.95193000    1.12944000      0.303651   -0.21341800   -0.03689300
Se   13.39195000    2.44395000    8.57829000     -0.254486   -0.76283800   -0.01375000
Se    8.65517000    4.40166000   18.79555000     -0.190640   -0.32288300   -0.66456800
Se   11.01104000    7.27088000   10.30611000      0.972249    0.33450000   -0.46776700
Se   16.02952000   13.42685000   17.66409000     -0.616636   -0.01924500   -0.84649500
Se   13.25603000   16.31183000    8.09579000     -0.847705    0.69705800    0.48429800
Se   15.82301000   17.02416000   17.91338000     -0.422727   -1.78918000   -0.50981300
Se   14.35885000   23.03115000    7.35752000      0.273640   -0.22831200    0.46877100
Se   17.31974000    1.38268000   17.18675000     -1.517629   -0.08973500   -1.08967600
Se   17.49070000    3.32846000   10.92962000      0.379626    0.93800600   -0.17269500
Se   20.97911000    3.59348000   17.93227000      0.250426   -0.14855100    0.18240500
Se   18.86319000   10.33822000   10.43386000      0.054092   -0.61387000   -0.36994400
Se   18.81001000   10.32751000   16.16028000      0.400525   -0.24371800    0.55759800
Se   15.41653000   16.99414000   10.99076000      0.129457   -0.57117800    1.35574000
Se   20.10275000   14.41495000   18.16089000     -2.424069   -0.20311700    0.25130300
Se   19.67501000   21.47558000    8.52459000     -2.014624   -0.20198300    1.14505400
Se   18.68572000   18.87342000    2.20282000      1.519826    0.33525200   -0.82961200
Se    5.19331000   22.96679000    8.73490000     -0.059098    1.05967700    1.09224900
Se    3.12569000    2.53942000   19.29390000      0.459411    0.64829600    0.58359300
Se    7.46980000    6.71962000    9.84063000      0.196857    0.38148800    0.34259100
Se    4.43103000    7.30788000    0.73908000      1.688962    0.01180100   -0.14558300
Se    3.00484000   16.07291000    4.40894000      0.537542    1.43990000    0.30333400
Se    6.15810000   12.85166000   17.13411000      1.145968   -0.17029400    0.82435200
Se    2.22453000   21.00570000    8.58773000     -1.257869   -0.61402600   -0.63747400
Se    0.50208000   19.41307000    0.49804000     -0.083709   -0.59051700   -0.68597300
Se   10.56354000    0.03774000    7.71892000     -0.644319    0.01687700   -0.13692100
Se   11.85308000    3.67066000    1.72447000     -0.217463    0.17453900   -0.03649500
Se   12.25261000    4.51855000    8.56135000     -0.794806   -0.74392300    0.23373800
Se    8.76164000    7.60478000    1.46136000     -0.275248    0.24265600   -0.47276500
Se   11.19132000   13.62043000    7.62134000     -0.142011   -1.00953400   -0.48757700
Se    8.98713000   14.95427000   19.52276000      0.272785    0.29933700    0.02960300
Se   12.06670000   22.08654000   10.45238000      0.761342   -1.41291800    0.52804200
Se   12.21011000   14.76967000   17.67019000     -1.034827   -0.71590000    0.78432100
Se   18.43141000    0.67770000    8.71628000     -1.348145    0.61176600   -0.09255300
Se   16.72410000    4.08486000    0.61713000     -0.305034    0.77396700    0.30299800
Se   16.26106000    6.31975000    8.23111000     -0.260067    0.27802100   -0.59202900
Se   15.33971000   10.39901000   15.78759000      0.399182   -0.13081500    0.57609800
Se   14.87263000   11.58531000    8.15079000     -0.006648   -0.40219500    0.95588200
Se   16.49770000   12.61603000    0.33897000      0.461320    0.15733300    0.16067300
Se   15.07589000   18.90386000    5.25073000     -1.121961   -1.24163600   -0.45887300
Se   18.22343000   21.33929000   17.65981000      0.426233    0.31422200    0.57262100
Se   22.47029000    0.24082000    8.66855000      0.589167    0.24360200   -0.41264900
Se   23.35933000    1.67420000   15.79689000     -0.798403   -0.75599600    0.28829400
Se   21.35146000    7.69299000    9.40513000     -0.057573   -0.06229000    0.06816300
Se   23.33805000    6.31599000   18.57730000      0.136149    0.31570900    0.57305000
Se    0.73693000   10.75128000    7.48593000     -0.331425    0.65604000    0.64549200
Se   21.11469000    8.77365000   19.29062000      0.511800   -0.05400700   -0.02350900
Se   21.12367000   17.92781000    8.78740000      0.969584   -0.08869200    0.75784700
Se   19.58765000   17.22805000   17.01502000     -0.198718    0.37325500    0.06762800
Se    2.28406000    0.02011000   10.33209000      0.116102    0.20423100    0.00833600
Se    2.85929000   23.45038000   14.59604000     -1.051107    3.24528800    0.77160400
Se    2.30140000    7.27309000    8.16252000     -0.047182    0.29367300    0.45817400
Se    2.04870000    8.13481000   17.90538000     -0.784164    0.10943100   -0.21815400
Se    0.89711000   16.16101000    9.33575000     -0.071599   -0.02224000    0.17651600
Se    2.23106000   12.73927000   17.03303000      0.209929    0.87326100   -0.32128500
Se    0.54786000   20.07595000    6.86669000      1.404692   -0.42978000    0.40299500
Se   23.22706000   19.19235000   16.51647000      0.421238    2.54405500    0.74671000
Se    7.65027000   23.34769000    5.02067000      0.214073    0.68238000    0.44365000
Se    7.09990000    2.33369000   17.65312000     -0.596307   -0.74653100    1.38255800
Se   10.32060000    6.24288000    6.09439000     -1.065436   -0.11329300   -0.24256500
Se    7.35747000    7.61727000   16.53517000      0.083679   -0.16077500    0.06701000
Se    7.39905000   14.13680000    7.98242000     -0.862260    0.19998700    0.92511900
Se    8.95609000   17.89180000   12.34301000     -0.005891   -0.27370100   -0.22310000
Se    6.19787000   17.68335000    4.06559000      0.555133    0.00271200   -0.09031700
Se    8.17190000   17.37151000   16.96655000      1.331762    0.13347800   -0.17751000
Se   14.37003000   21.84197000    4.60568000     -0.012266    0.43008200   -0.41054300
Se   13.64964000   23.14139000   15.67888000      0.840266    0.57664500   -0.69126100
Se   13.23598000    8.72834000    4.23426000     -1.244379   -0.26971300    0.36805600
Se   10.07592000    7.51995000   14.70368000      0.696372    0.12754700   -0.65937500
Se   14.04157000   12.84905000    4.00609000      0.734095   -0.62019000    1.11152800
Se   14.92713000   15.00841000   14.54267000      0.085147   -0.36967700    0.59489000
Se   12.58084000   18.51510000    5.39485000      1.007776    0.37078200   -0.13714800
Se   15.35816000   19.62934000   19.46949000      1.661752    1.15065900   -0.40831100
Se   18.72059000    1.45705000    3.79356000      0.576884   -0.21551100    0.62957700
Se   19.19039000    0.45610000   18.06066000      0.704783   -0.34456900    1.30648500
Se   19.99747000    6.51594000    6.23419000     -0.001375    0.03123900   -1.70911500
Se   20.20726000    6.71412000   15.95179000     -0.523521   -0.25239500   -0.20294300
Se   19.32079000   11.98667000    5.27986000      0.115572    0.45039700   -0.21927600
Se   18.48251000   12.78019000   14.20843000     -0.114560    0.10115600    1.00648100
Se   19.11537000   18.84127000    5.98670000     -0.960215   -0.51814900    0.85553500
Se   19.68401000   20.55048000   14.91439000      1.328294    1.05126900   -1.03624500
Se    5.64058000    6.56182000    6.81385000      0.036492    2.48489400    0.57720100
Se    1.69223000    5.18283000   16.79591000      0.817003    0.69682900   -0.43145500
Se    3.78714000   10.08438000    5.46912000      0.378406   -1.00453900    0.01079300
Se    3.90188000   11.50794000   13.72624000     -0.224668   -0.67009700    0.94018500
Se    3.22454000   13.86816000    4.85053000     -0.347093   -0.74295300    0.28408500
Se    2.65186000   16.75873000   17.79689000     -0.319241   -0.12626200    0.36628000
Se    0.30720000   22.95188000    5.31331000     -0.235986    0.05684500    1.62480200
Se    3.79060000   21.56168000   14.14548000      1.084730   -2.52475000   -0.92300300
Se   12.31173000    1.39436000    4.92072000     -0.199642   -0.21196800    0.33396000
Se    8.39237000    4.86004000   16.43367000      0.233239    1.06464300    0.14516300
Se   11.25326000   11.04509000    6.88666000     -0.286873    0.91623700    0.13104800
Se   10.67622000   11.84825000   17.24060000     -0.543692    0.24134900   -0.29315800
Se    9.96527000   15.86211000    9.57194000      1.355963   -0.96214100   -0.67712500
Se   11.52885000   19.16268000   18.20184000     -0.135241    0.03621000    1.19162100
Se   11.08836000   21.34291000    3.98437000     -0.220969   -0.30021300    0.34718700
Se    8.09233000   21.23443000   18.36191000      0.723469   -0.47100400    0.11273600
Se   13.61392000    4.61697000    5.69495000     -0.019462    0.41124100   -0.01307400
Se   15.06177000    5.47693000   16.70228000      1.196001   -0.88328200    0.23304300
Se   16.88241000    9.82559000    5.49511000      1.373004    2.15611000    1.02750100
Se   17.51459000    8.17790000   13.15078000      0.521670   -0.73508000   -0.34051300
Se   17.47478000   13.75288000    5.66935000     -0.519669   -0.40629300    0.14114300
Se   12.85664000   18.22365000   15.91983000     -0.102351   -1.04054000   -0.25791200
Se   16.53187000    0.71522000    4.15231000     -0.790410   -1.17246000   -0.06440200
Se   16.47949000    3.35624000   13.71518000      2.159808   -1.28034300    0.61910600
Se   22.31990000    4.28470000    7.36670000      0.607287    0.07454600   -0.33770000
Se   22.76218000    4.82120000   14.52604000     -0.085050   -0.21849000    0.24885300
Se   19.67500000   11.19641000    8.15562000     -0.458130   -0.46289800    0.31148200
Se   22.02994000   12.88888000   15.67062000      0.072412    0.20166800   -0.75757900
Se   20.44668000   14.79583000    7.04440000      0.053646   -0.23683300    0.19118200
Se   22.56246000   17.25768000   15.77702000     -1.057446   -2.15779400   -1.65424200
Se   21.53308000   21.32744000    7.31834000      2.393165   -0.55547000   -1.72366700
Se   22.48867000    0.34557000   19.19364000     -1.537544   -1.97681000   -0.01979400
Se    4.16830000    2.98666000    6.06108000      0.064395   -0.21143300    0.28580500
Se    6.37605000    0.62940000   15.53613000     -0.948413   -0.17530500    0.39131800
Se    2.81361000    5.22025000    3.19394000      0.217547    0.12366900    0.05365700
Se    4.86568000    8.40558000   11.96032000     -0.663043    0.57387600    0.50608800
Se    2.88138000   10.47220000    2.35520000     -1.107577   -0.08803000   -0.44776300
Se    3.87615000   14.87126000   14.36423000      0.202463    0.71196800    0.01559100
Se    4.76536000   19.00543000    0.86952000      0.732567   -0.48725400   -0.32327100
Se    4.77162000   18.22347000   12.93796000      0.389962    0.02904200   -0.31259700
Se   10.22361000    1.61306000    2.51196000     -0.307007    0.26606600   -0.03309000
Se   10.64960000    1.54367000   14.70387000     -0.150301   -0.33958600    0.23596900
Se   10.48660000   10.70389000    2.63018000      0.304193   -0.20123200    0.08319400
Se    8.94237000    9.49189000   16.81668000      0.113582   -0.33656500    0.39627000
Se    8.07719000   12.89727000    4.79629000      0.754811   -0.27884800   -0.41428400
Se   11.50419000   11.70058000   13.79729000     -0.177811    0.55618000    2.19226400
Se   10.25357000   21.00941000    1.67464000     -0.798613   -0.10992500   -0.41408200
Se   11.06777000   21.27216000   15.74275000     -0.897606    0.46748500    0.12876800
Se   18.27586000    3.34528000    8.61650000     -0.565695   -0.61810600   -0.40843200
Se   14.52925000    1.75467000   15.65631000     -0.580774   -0.77940100   -0.07383100
Se   16.86798000    6.61208000    4.67268000     -0.705197   -0.12719000   -0.28135700
Se   13.99600000    7.29417000   14.43382000     -0.797841   -0.41531800   -0.92586600
Se   17.40312000   11.55870000    2.25487000      0.021568   -0.08749200    0.96664000
Se   16.74933000   18.54323000   14.40684000      0.523305   -0.29742600    0.87721200
Se   15.87950000   16.62825000    4.08865000     -0.313831    0.82242400    0.09072700
Se   16.00910000   20.53105000   13.33779000     -0.385419    0.31102400   -0.21188100
Se   22.31833000    0.89019000    4.70311000     -0.059884    0.35987500    0.46365200
Se   22.95042000    0.98834000   12.57683000     -0.372514    0.53589500   -0.17249400
Se    0.47800000    8.37299000    4.79600000     -1.198024   -0.30809000    0.21315500
Se   21.11848000    7.92561000   13.82832000      0.288947    0.23603800   -0.58483100
Se   23.30505000   15.64302000    5.75071000      0.289542    0.08917600   -0.08631800
Se    0.31200000   12.99448000   14.32646000      0.361966   -0.34485700    0.79866900
Se   22.92390000   19.02472000    3.68372000     -0.681567   -0.32406200    0.45101600
Se   21.65528000   21.88665000   11.99533000     -0.269265   -0.97864700    0.76251300
Se    3.07615000    4.13606000    7.70732000     -0.044159    0.41420900   -0.01598100
Se    2.20301000    4.28516000   14.23705000     -0.024554    0.40182700   -0.43186300
Se   21.64565000   11.10431000    4.32488000      0.810855   -0.47915000    0.61439000
Se    1.00317000    9.43153000   12.74894000     -0.111645   -0.02894700   -0.26151000
Se    1.03440000   15.36951000    2.22779000     -0.236036   -0.51657100    0.22618200
Se    0.85944000   17.14379000   14.02943000      0.506617   -0.03631400    1.49542900
Se    3.71172000   21.64196000    1.53551000      0.219565    0.50299800    0.83324500
Se    4.87596000   18.48220000   15.39649000     -0.149489   -0.46698200    0.01125800
Se   10.34092000    4.53905000    3.99067000     -0.328618    0.25832000   -0.28053600
Se    6.97094000    3.82394000   13.40946000     -0.152788   -0.79454400    0.22940000
Se    6.40175000   10.03606000    3.71519000      0.581351   -0.57002600    0.10444000
Se    7.09152000   10.96657000   13.80418000      0.376532   -0.41456600   -0.38530900
Se    8.01679000   16.82235000    2.69475000     -0.835317    0.07316200   -0.31190700
Se    9.52332000   16.00036000   13.78093000     -1.022713    0.08995100    0.69049300
Se    8.17163000   20.91749000    8.29733000     -0.968396    2.18177200    1.85771400
Se    7.24459000   21.60308000   14.85968000     -0.141474   -0.56795000   -0.36740800
Se   15.03550000    1.82200000    2.44332000      0.111352    0.33588500   -0.26693000
Se   11.09407000    5.46396000   13.52809000     -0.460419    0.24916600    0.60079400
Se   13.98294000    9.08799000   19.18834000      0.423849   -0.65918000    0.54948400
Se   14.48921000   11.04630000   12.76920000      0.317374   -0.77699800   -0.41412000
Se    9.54078000   16.46790000    5.24728000     -0.070680   -0.30817000    0.92046200
Se   13.17850000   17.65656000   12.72336000      0.218013   -0.44440900   -0.26534400
Se   14.14829000   21.77624000    2.02892000      0.241910   -0.40135400    0.83239900
Se   14.49211000   22.73903000   13.11725000     -0.755365    0.72778300    0.59334800
Se   18.07308000    6.08286000    1.35138000     -0.200946   -0.16094300   -0.81853000
Se   14.47657000    5.57538000    9.83166000      0.154316    0.19120500   -0.00291200
Se   20.85210000    7.86243000    2.91383000     -2.210265   -0.86528900    0.28400800
Se    0.13964000   13.47464000   11.91421000     -0.387251   -0.06351500   -0.23995500
Se   20.17862000   15.69116000    4.03769000     -0.004294    0.11783800   -0.03167400
Se   17.94425000   16.89907000   13.09687000      0.514780   -0.21277400    0.38742300
Se   19.18258000   22.57472000    4.24560000      0.600313   -0.78000500    0.29509100
Se   18.41277000   23.36845000   12.54391000     -0.616418    0.12853700    0.78608800
