384
23.69824000 23.69824000 19.89960000
Ge    5.50583000    6.68320000   12.07444000     -0.728807   -0.31721400   -0.11269600
Ge    6.15086000    5.24297000    3.63576000     -0.267640    0.43501100   -0.17950200
Ge    1.84819000   12.83527000    7.21264000     -0.643110    0.22518300   -0.50393100
Ge    8.96847000   14.57818000   16.56899000      0.535241   -0.95392300    0.77957500
Ge    5.11412000   15.04894000   10.14740000      0.098441   -0.04510200   -0.04516800
Ge    9.65904000   18.50928000   19.77782000     -0.520788   -0.68912200   -0.08263300
Ge    7.14229000   22.61046000   11.20885000      0.802214    0.87325600   -1.07352200
Ge    6.14688000    1.74318000    0.58891000      0.037016    0.06397000    0.24826800
Ge    9.46813000    5.57240000   10.87800000      0.436149    0.29198900    1.12109600
Ge   11.37888000    5.75643000   19.47743000      0.289064   -0.12210900   -0.07450200
Ge   10.82369000    9.31253000   10.54057000      0.609374    0.68955500    0.47188500
Ge   13.62587000   12.02605000   18.87889000     -0.005585    0.18440400    0.71093200
Ge   10.99237000   17.73919000    8.68852000      0.900745   -1.09324200    1.08895900
Ge   13.40376000   15.91430000    0.41181000     -0.443650   -0.36765300    0.84169300
Ge   11.29298000   23.64740000    9.21132000      0.775127   -1.28213400   -0.73570900
Ge   15.94428000   22.60946000   19.18123000      0.329943    1.84468900    0.26616000
Ge   18.42662000    4.84176000   11.34618000      0.805644    0.90482000   -0.25436200
Ge   19.87769000    9.29014000   16.91026000     -0.047847   -0.33260200    0.25601900
Ge   19.81293000   12.17408000    9.90786000      2.201774   -0.39527900   -0.20579000
Ge   18.16624000   11.67273000   17.99145000      0.198896    0.31949700    0.30386900
Ge   15.25270000   19.06470000    8.71652000     -0.676005    1.12849500   -0.21793600
Ge   18.70563000   15.92249000   19.20542000      0.612798   -0.23688400   -0.17279400
Ge   19.96782000    2.07531000   12.48471000     -0.474903   -0.73052600   -0.36289600
Ge   20.41630000    4.41713000    1.84276000     -0.930837   -0.78124100    0.06233100
Ge   23.36207000    5.68479000    9.05422000      0.560568    0.43170300   -0.65382300
Ge    2.12760000    3.35035000    4.84666000      0.157445    0.83148500    0.66877100
Ge    2.04639000    9.38550000    9.66952000     -0.590777    1.95369300    0.65176500
Ge    0.22011000   10.06403000   19.63910000     -0.357238    0.54083500   -0.72111200
Ge   21.97016000   15.95264000    9.41200000     -0.236986    0.51011200   -0.93563400
Ge    1.30962000   14.39229000   19.13912000      0.115349    0.81451500    0.16593200
Ge   19.08616000    1.07631000    9.80035000     -0.294447    0.00592800    0.41225100
Ge    0.66821000   21.48288000    0.03293000      0.397749   -0.52554600    0.84286500
Ge    4.40848000    7.84529000    8.77286000      1.191514   -0.89484600   -0.36920400
Ge    1.87364000    6.56919000   19.37681000      0.347126    1.44557000    0.03022000
Ge    2.11533000   10.30855000    5.71248000     -0.702007   -0.25504100   -1.29669300
Ge    4.48453000   12.47810000   16.16956000     -1.043387    0.43083700   -0.07232800
Ge    5.41632000   17.73982000    3.40557000      0.343826    1.41322400    2.07546000
Ge    0.05582000   17.51084000   18.32691000      0.646805   -0.06856100    1.24090200
Ge    5.35367000   20.19263000    8.92906000     -0.400824   -0.11227200   -0.64184500
Ge    4.12543000   22.99612000   18.02619000     -0.301886    0.37460700    0.27998200
Ge    9.76888000    2.68592000    7.27948000      0.673128   -1.00630400   -0.30496500
Ge    6.91315000    8.84935000   18.64526000      0.542155   -0.21407500    0.49739900
Ge    5.95330000   12.58241000    6.51337000     -0.030823   -0.21881600   -0.86488600
Ge    8.33095000    9.81292000    1.88999000      0.790920   -0.76369800   -0.74724100
Ge    8.12144000   18.34347000    6.77249000     -1.573366   -0.10349800   -0.33231100
Ge    4.40175000   19.80819000   18.72155000      0.284990    0.11690800    1.24792400
Ge   10.85014000   22.83632000    6.06837000      1.566784   -0.45332400   -0.25327900
Ge   10.01455000    1.68467000   17.83368000      1.561884    0.16156600   -0.96975500
Ge   12.93481000    6.65940000    5.95405000     -0.540767   -0.84503000   -0.17933900
Ge   13.76461000    8.58107000   18.80700000      1.071880   -0.94071300   -0.63034200
Ge   16.16646000   11.98194000    6.76235000      0.469757    0.70107800    0.97044500
Ge   16.47589000   15.44524000   16.10550000      0.378224    0.08330300   -0.59613000
Ge   12.55033000   16.86099000    5.15841000      0.061786    0.14997100   -0.62421300
Ge   15.18017000   18.57359000   16.75995000     -0.420186    1.17890800   -0.78154500
Ge   15.36278000    0.35497000    9.88112000     -0.989250   -0.36479800    0.11313100
Ge   16.48410000    4.09965000   18.60303000     -0.227566   -0.12327000   -0.55364700
Ge   19.92685000    5.66510000    7.85083000      0.777269   -0.85753300    1.99012600
Ge   21.51461000    5.39667000   16.44748000     -1.398702   -0.36805300   -0.77559600
Ge   19.70446000    8.71693000    7.84691000      0.303258   -0.10900600    0.40962700
Ge   22.04838000   12.83823000   18.82041000      0.102913   -0.35970600   -0.25439700
Ge   19.43960000   17.83924000    7.57901000      0.086986   -0.25101800   -0.68450000
Ge   20.82597000   19.03100000   16.28131000     -0.372074   -1.09966800    0.21570000
Ge   19.66066000    1.02111000    5.40899000      0.058927   -0.95364800    0.38687400
Ge   19.78577000   21.05279000    0.83687000      1.144588    1.34698900   -0.75217300
Ge    6.08429000    3.23259000    9.19701000     -0.439025    0.01420300    0.60220900
Ge    4.59879000    3.46394000   17.30993000     -0.986825    0.60779500   -1.07282400
Ge    3.18755000    6.64417000    5.22344000      0.386456    0.33718100    0.40726800
Ge    2.31102000    9.59572000   13.35913000      0.807873    0.26584100    0.65799200
Ge    1.98902000   17.48823000    6.08039000      0.314638   -0.35940600    0.17405700
Ge    2.07158000   14.88682000   15.72154000      0.492721    0.70634800   -0.09947800
Ge    0.22281000   19.64805000    9.36023000      0.067169    0.26986800   -0.21400100
Ge    3.23013000   21.04968000   14.27408000     -0.559967    0.54246900   -0.56512800
Ge    9.61853000    2.99723000    1.99210000      0.153489    0.66742300    0.76352600
Ge    8.55191000    1.94093000   15.70023000      0.227566    0.57735800   -0.27340400
Ge    9.57281000   11.07147000    5.01006000     -1.102685   -0.42132100    0.24517500
Ge    7.37193000   10.25448000   15.72693000     -0.697310    0.84407000   -0.43370800
Ge    9.13070000   14.22431000    7.08799000     -0.216751   -0.87627400    0.48447500
Ge   14.24481000   11.65256000   15.92910000      0.501034    0.08624200   -0.35885600
Ge    7.91128000   21.84879000    5.29989000     -0.673056   -0.43967300   -0.52695200
Ge    8.31285000   19.83201000   15.46280000      0.716729    0.34408000    0.44060700
Ge   14.58007000    1.83869000    6.47217000     -0.336541   -0.14333000    0.40670000
Ge   12.63089000    2.55821000   15.87032000      0.560668    0.33610200    0.07595800
Ge   15.68918000    9.65927000    4.78460000     -2.561566   -0.39316700   -2.34003800
Ge   15.77535000    8.49386000   15.21156000     -0.160589   -0.94394800   -0.26933800
Ge   16.09730000   13.64055000    3.77173000     -0.380066   -0.16604200    0.03168200
Ge   13.16244000   16.25434000   15.25843000     -0.070795   -0.26778700    0.03173100
Ge   13.91919000   19.27221000    0.51083000      0.170332    0.65034800    0.36530300
Ge    9.96949000   21.82142000   19.08782000      0.169305   -0.94088400    1.34361900
Ge   23.44299000    4.06001000    4.56221000     -0.800098    0.03823700   -0.65445600
Ge   21.20284000    2.56683000   15.21732000      0.928280   -0.37151100    0.03748400
Ge   22.28752000    9.57846000    6.58890000      0.000008   -0.44860300    1.22704600
Ge   20.62602000    9.92286000   12.87211000     -0.292259   -0.38398500    1.38868000
Ge   22.45609000   16.75855000    3.36676000     -0.083925   -0.44780300   -0.26328400
Ge   19.54078000   14.17639000   13.74101000      0.243420    0.23585700    0.33313800
Ge   20.48161000   20.57372000    6.28668000      0.467975   -0.16572000   -0.37071700
Ge   20.43822000   22.97789000   17.86224000      0.743423    1.01432500    0.00604200
Ge    6.14042000    4.53824000    6.17018000     -1.358297    0.37436600   -1.74329600
Ge    4.29246000    1.29461000   14.04301000     -0.353950   -0.48179300   -1.34421000
Ge    5.28417000   11.52927000    3.74735000     -0.077511   -0.19274200   -0.31479900
Ge    7.71836000    8.32688000   13.11937000      0.584032    0.61926900   -0.38985300
Ge    5.53252000   15.63705000    0.75397000     -0.729373   -1.19116600   -1.13383400
Ge    3.24317000   12.95525000   12.26859000      0.014494   -0.40483800    0.36821700
Ge    4.52832000   22.63005000    6.32268000      0.001537   -0.45415000    0.53985200
Ge    6.64078000   20.73018000   12.84897000      0.505074   -1.06020300   -0.18014300
Ge   15.41257000    5.42501000    2.95303000     -0.036696    0.25687400   -0.52645500
Ge   13.48492000    0.04975000   13.18521000      0.292539   -0.71090200   -0.01458100
Ge   11.31110000    9.80627000    0.02178000     -0.849465    0.82398700    0.95983600
Ge   13.69496000    9.68256000   12.61983000     -0.045460   -0.78565300    0.16198300
Ge   11.03616000   13.69583000    1.93151000     -0.299643   -1.32106000    0.68266800
Ge    7.64690000   17.10143000   10.77976000     -0.730585    0.06467800    0.24404800
Ge   12.84916000   23.21293000    2.07222000     -0.301935   -0.18355200    0.45188300
Ge   11.14323000   22.26701000   13.28288000     -0.938974    0.01126600    0.40593600
Ge    0.41893000    1.78362000   18.53953000     -0.827714   -0.12109600   -0.43916100
Ge   12.80011000    6.07772000   13.08499000      0.584470    0.02363300   -0.88804100
Ge   17.67662000    8.65995000   19.57198000     -0.132242    0.13449700    0.29116600
Ge   12.92757000    6.83902000    8.51399000     -0.816429   -1.44653200   -0.41183500
Ge   20.43584000   13.19898000    3.04257000      1.030635    0.25531600   -1.02080400
Ge   17.06108000   16.19643000    8.35914000     -1.364732   -0.02228700   -0.44764800
Ge   17.30878000   21.42803000    2.90125000     -0.358007   -0.64322000    0.40052300
Ge   18.85109000   21.37651000   12.87961000     -0.369549   -0.24751900    0.12364400
Ge    0.40040000    1.35816000    3.07015000     -0.092644   -0.25532800   -0.11719900
Ge   22.96236000    2.30642000   10.74422000     -1.203941    0.97603100    0.61417300
Ge   23.16349000    9.37143000    3.33369000     -1.009068    1.26051700   -1.25324100
Ge   23.36073000    8.95212000   12.47163000     -0.468392    0.84804200    1.86623800
Ge    1.96996000   13.25452000    4.16774000      0.266696    0.85421700    0.45941400
Ge    0.01976000   16.07950000   11.76316000     -0.412316   -0.71804300   -1.14138200
Ge    0.39038000   21.13537000    4.27158000      0.323660    0.86682500   -0.68573900
Ge   20.79822000   18.23569000   12.80289000     -0.493472    0.25971100   -0.01802100
Se    2.50517000    0.78158000   19.65262000     -0.080669   -0.49951200   -0.15224100
Se    1.41240000    1.62385000   10.34686000      1.679210   -0.28353600   -0.30919100
Se    0.43393000    8.27905000    1.23465000      0.649110   -2.06941000    0.09567600
Se    0.15005000    8.06028000   10.42201000      0.233700   -0.74165100   -0.96140500
Se   22.13622000   11.44365000    1.52111000      0.435923    0.03000900   -0.33751400
Se    2.15772000   14.28906000    9.24372000      0.103852    0.06505300   -0.21625600
Se    2.09483000   19.65011000    3.34346000      0.584236    0.23763400   -0.63493600
Se   23.25077000   18.58718000   11.48226000      0.217805    0.12679400    0.55014700
Se    6.82630000    3.00761000    2.89161000      0.369768   -0.82618300   -0.98579200
Se    5.42893000    3.54275000   13.17785000     -3.227072    1.20018600    0.36752700
Se    9.52517000    5.47188000    4.11517000     -1.647307   -1.38461700   -2.17871500
Se    7.77155000    9.30085000   10.41991000     -0.146349   -1.38689800    0.55309200
Se    7.71735000   11.49061000    0.03807000      1.077088   -1.16913200    0.07221100
Se    6.53306000   15.55944000   12.30289000      0.156561    0.14967300   -0.54375600
Se    7.20994000   20.27358000    3.10014000     -0.964532    0.06216400    0.18230300
Se    9.84339000   20.66143000   11.87355000     -0.720966   -0.15251900   -0.83757500
Se   13.70867000    0.29153000   19.80976000     -0.255102    0.23658500   -0.74600200
Se   12.90330000    2.31271000   12.26875000     -0.598198   -0.33611500   -1.43700800
Se   11.47249000    8.24139000   18.10213000      0.162102    0.09527300   -0.85948600
Se    9.74900000    9.41145000    8.32874000     -0.206706    0.51666600   -1.38767700
Se   13.47235000   13.21231000    1.18949000      0.141060    0.89534900   -0.51278200
Se   13.03527000    9.02186000    8.89354000      0.004360    1.79591100    1.03003100
Se   15.54031000   16.99316000    1.52044000     -0.086113   -0.41711300   -0.63427200
Se   12.39050000   18.73035000   10.72523000     -0.022012   -0.71155900    0.07093900
Se   18.21536000    4.28087000    3.79257000      0.261797   -0.30267700   -0.04304000
Se   13.97678000    3.71053000   13.61844000      0.348485    1.05259000    1.78296400
Se   15.05913000    5.12578000   16.56925000     -0.275531    0.33319000    0.02859200
Se   19.78982000    4.33973000   13.89125000     -0.716598    0.28441200    0.44978100
Se   19.64355000    9.77631000    0.92879000      0.836419   -0.48024300   -0.70402000
Se   17.34259000   19.28341000    7.36789000      0.083767   -0.84900200    0.48168200
Se   20.41356000   17.56611000    0.34309000      0.540620   -0.56694200   -0.69846600
Se   19.22995000   19.55786000   10.97312000      0.896262    0.09266800    0.39416500
Se    2.68594000    1.01099000    4.65126000      0.058049    0.19147700   -0.70589600
Se    2.64737000    5.33184000   12.28240000      0.206979   -0.37409500   -0.00537300
Se    5.66470000   11.59692000    1.03348000     -1.427217    0.25588300    0.11664300
Se    4.75393000   12.55296000   10.33894000     -0.413818   -0.10144100    0.43615300
Se    3.86997000   13.80580000    1.63159000     -0.002266    0.30323100   -0.37763500
Se    3.05315000   15.34974000   11.77538000     -0.011155    1.31235400   -0.27506500
Se    5.76195000   21.77851000   19.41320000     -0.234161   -0.11896100    0.02562000
Se    4.64055000   20.47289000   11.47366000      0.132997    0.33835700   -0.39642600
Se   12.73657000    6.61744000    2.17472000      0.212442   -0.42997700   -0.69403400
Se    8.46690000    3.34425000   11.00588000     -0.056857   -0.70757400   -0.51976200
Se   10.96138000   12.17838000   18.66040000     -0.161690   -0.29132800   -0.73322900
Se   11.11825000   11.88220000   11.13456000     -0.071638   -0.44324400   -0.55393300
Se   11.61282000   15.85464000    2.58939000      0.721332    1.44045100   -0.16263300
Se   11.83152000   14.52810000   13.76144000      0.176555    0.14302000   -0.12772200
Se   11.57038000   23.50239000   18.24529000      0.684836    0.04546900   -0.83914700
Se    9.93512000   23.69300000   11.18590000     -0.778224   -0.51992300    1.39664800
Se   12.09691000    3.14810000   18.20999000     -0.770206    0.04656100   -0.60755000
Se   17.65027000    7.80986000    9.52220000     -0.232589    0.27204300   -0.49226800
Se   16.87620000    8.98381000    2.35800000     -0.354520    0.00227400   -0.17005300
Se   17.91568000   13.44891000   10.47003000     -1.605223    0.43975600    0.56172000
Se   18.51405000   14.56152000    2.42121000     -0.062446    0.36770100   -0.06688500
Se   14.50255000   15.15284000    7.68282000      0.477934    0.56254400   -0.21750400
Se   18.15081000   22.94667000    1.21889000     -0.143521   -0.10959100   -0.37068400
Se   17.25556000   22.97299000   10.90547000      0.585575    0.22343200    0.61595400
Se    0.07942000    3.63876000    1.97624000     -0.288870   -0.38967000    0.46531900
Se   22.97733000    4.75277000   11.22840000     -0.108246   -1.50678300    0.19224000
Se   21.78234000    6.21691000    2.67771000      0.398862   -0.05600600   -0.29099000
Se   20.83265000   12.30356000   12.40451000      0.206543    0.12484900   -0.82165500
Se   22.59246000   14.44877000    2.41811000     -0.628808   -0.14543700    0.41706300
Se   20.82793000   15.83857000   11.86859000      0.304567   -0.20596600   -0.15478300
Se   23.22177000   22.52100000    2.49241000      0.075934    0.03571200   -0.55443300
Se   21.32979000   23.43534000   15.28121000      0.706107   -0.10432200    1.11206700
Se    4.15367000    5.25631000    9.22484000      0.225394    0.79157700    1.21606700
Se    4.88076000    6.01901000   18.24830000     -0.767977    1.15861100   -1.09321100
Se    3.74632000   11.32523000    7.17503000      1.800555    0.70063600    1.22734600
Se    3.72422000    7.92139000   14.84502000      0.048338   -0.51213500    0.10209400
Se    5.68694000   19.86799000    6.41488000      0.015016    0.62905000   -0.21198100
Se   22.72635000   15.16806000   19.23450000     -0.388445    1.03640400    0.10417200
Se    0.64375000   21.72835000   11.25521000      0.259243    0.33119100   -0.44394400
Se    2.60097000   21.03915000   17.75164000     -0.429098   -0.11883400   -0.92070300
Se    7.87265000    4.14402000    7.65659000      0.373912    0.73506700    1.20551800
Se    5.83890000    4.72682000   19.79612000      0.982418   -0.56343700    1.47784600
Se    7.87744000   10.42594000    7.10191000     -0.322744    0.11828000   -0.62559200
Se    3.86923000    9.99080000   18.73639000     -0.665248   -0.46991400    0.33329900
Se    6.18721000   17.83886000    8.96532000      0.770112   -0.55600300   -0.13284300
Se    6.26433000   16.16810000   18.12089000      1.138133   -1.53942300    1.30379200
Se    9.70809000   19.56044000    8.04509000      0.007217    1.70703200    0.19480700
Se    8.75495000    2.01875000   19.74977000     -1.150822   -0.08558500    1.08879300
Se   14.01689000    2.49706000    9.21929000     -0.031061   -0.48068900   -0.43586700
Se    8.96790000    4.68695000   18.42494000     -0.375315    0.42622600   -0.17105300
Se   10.59734000    6.03098000    8.78688000      0.538233   -0.00941700   -0.53095000
Se   16.61830000   12.86644000   16.01445000      0.165210    0.05439000    0.83201400
Se   13.36721000   17.67599000    7.49463000     -0.600809    0.49540000   -0.06491200
Se   14.84369000   16.47329000   17.83220000     -0.064565   -0.92408900    0.24962200
Se   16.00362000   23.10931000    7.61725000     -0.974560   -0.02745600   -0.76984300
Se   17.52276000    1.74980000   17.07565000      0.895380    0.50302700    0.14780900
Se   16.47126000    3.70482000   11.92897000     -0.309355   -0.38433000   -0.30595500
Se   21.21327000    3.29363000   17.55445000     -0.181734    0.56693800    0.70627500
Se   18.17838000    8.77753000   12.52325000      0.100926    1.21864600   -0.72656500
Se   21.25326000   10.67664000   15.47273000     -0.351755   -0.40331700   -0.72012300
Se   15.90111000   17.43171000   10.35874000      0.977356   -0.30554100    0.97803100
Se   19.79505000   13.29446000   19.51821000     -1.182847    0.22840700   -0.45128500
Se   18.84633000   23.30984000    7.79160000      0.878393   -0.61010900   -0.10619400
Se   19.25071000   18.99243000    1.75536000     -1.317860   -0.75372400    1.29214300
Se    5.96401000    0.19386000    8.47783000     -0.509224    0.18491900    0.18736000
Se    3.82618000    2.95455000   19.61701000     -0.335598   -0.28897400    1.04877200
Se    7.46389000    6.84797000   10.06564000     -0.761594    0.86668800    0.05960600
Se    4.29010000    8.22488000    0.35989000     -0.402009   -0.27818100   -0.53469700
Se    4.62046000   16.75134000    5.91744000     -0.392040   -0.18814600   -0.31363500
Se    6.80563000   12.57890000   16.87942000      0.677976   -1.02598000   -0.49943500
Se    2.84073000   18.80249000    8.40814000     -0.192221    1.00978000    0.07009400
Se    0.59074000   18.88105000    0.71662000     -0.404723   -0.02019400   -0.87577900
Se    9.03174000    0.27284000    7.03396000     -0.706423    1.02586300    0.50367600
Se   12.67849000    4.38163000    1.21585000     -0.003300   -0.14157300    0.63449600
Se   11.32702000    2.37303000    9.33741000      0.455517    1.30043300   -0.28098200
Se    8.28902000    7.56964000    0.89299000     -0.361487    0.76697600   -0.59740400
Se   11.03281000   13.14116000    8.32851000     -0.377273   -0.37717900   -0.85083300
Se    9.34953000   14.47137000    0.16776000     -0.457820    0.46370000   -0.59978700
Se   13.48978000   22.50908000   10.95822000      0.428795    0.92094000   -0.59136800
Se   11.87792000   14.44964000   16.71040000      0.570849   -0.44241200   -0.39870500
Se   17.57002000    2.32469000    8.24557000     -0.070614    1.09701500    0.28733500
Se   17.63392000    4.80875000    0.80768000      1.135358    0.60398500    0.80086100
Se   15.95652000    7.33970000    7.74343000      0.208296    0.04613800    0.69769100
Se   15.49393000    9.84746000   17.38476000     -0.295220   -0.13154600    0.39266000
Se   14.80767000   13.10429000    8.61792000      0.750028   -1.23684000    0.67986400
Se   16.49521000   12.32475000   19.80761000     -0.310615    0.07204900   -0.04671200
Se   14.73724000   19.05975000    4.32948000      0.346668    0.08049600    0.54787400
Se   20.24238000   20.57887000   18.09984000     -0.603099    0.19338000    0.88141700
Se   21.82816000    2.08567000    8.61760000     -0.486258   -0.33328700   -0.37576000
Se    0.28902000    0.98268000   16.07497000      0.163035    0.04334500    0.61169700
Se   21.18195000    6.89801000    9.69565000     -1.364006    0.38812200   -1.07740700
Se   23.03360000    7.05707000   16.97059000      0.907340    0.66576600    0.46739300
Se    0.29839000   10.91810000    8.10896000     -0.411800    0.52569400    0.21053500
Se   21.65635000    8.27674000   18.44787000     -0.062643    0.64996900    0.67126400
Se   21.64712000   18.47740000    8.30182000      0.329656   -1.21686100    0.21132400
Se   20.45248000   16.30234000   17.18215000     -1.167891    0.30138000    0.65503700
Se    0.97113000   23.22545000    9.33857000     -0.156983   -0.30563100    0.07386800
Se    2.57707000   22.97427000   12.44337000      0.230298   -0.12383300    1.15019200
Se    2.28782000    8.49918000    7.48977000      0.087198   -2.40069200   -0.39881700
Se    1.75018000    8.74629000   17.74934000      0.637807   -0.15036800    0.54781200
Se    0.93559000   16.20400000    8.40597000     -0.176404   -0.11456500    0.06430300
Se    0.91259000   12.54509000   17.86288000      0.971638   -1.49593300   -0.76846100
Se    2.55067000   20.56675000    6.18047000      0.086118   -0.38000500    0.81453900
Se   23.25831000   19.05068000   16.59864000      0.534646    0.40438600   -0.42187100
Se    5.78405000   22.88307000    4.31630000      0.797104    0.18108500   -0.41180400
Se    6.11281000    1.60412000   17.29374000      1.001862   -0.64801000    0.22986800
Se   10.29385000    6.86440000    5.53461000      1.467465    2.76161900    2.49201100
Se    5.97736000    7.98117000   15.84473000     -0.120394    1.09477900   -0.67683800
Se    7.12232000   13.44517000    8.48119000      0.326366    0.97015300    0.40699400
Se    8.28385000   18.61165000   12.56177000      0.226131    0.98475000    0.54347000
Se    7.30155000   16.45765000    3.65198000      1.221260   -0.79743500   -0.11866500
Se    9.50832000   16.70761000   15.64777000     -0.362407    1.25048000   -0.73838500
Se   14.69576000   21.91161000    5.76364000      0.740252    0.19672500   -0.15411900
Se   14.79548000   23.10353000   16.16199000      0.060609    0.85551700    0.28493700
Se   12.92255000    8.84324000    5.22546000      0.653915    0.63691800   -0.64288000
Se   10.45091000    7.79230000   13.09943000     -0.649786    0.38917100    0.14164700
Se   14.33558000   12.54298000    5.47971000     -0.356007   -0.34610000   -1.83975500
Se   15.13185000   15.15021000   13.88183000     -0.653793    0.48444000    1.03681000
Se   12.49315000   19.21191000    3.93339000     -0.549246   -0.66574600   -0.01762700
Se   15.81356000   20.34887000   18.96475000     -0.498560   -2.25301400   -0.44698200
Se   17.59568000    2.01625000    4.42783000     -0.020090    0.41322400   -0.08047200
Se   19.15740000    1.21995000   18.86905000     -0.195367   -0.33588400   -0.64288500
Se   19.64187000    6.92468000    6.02037000     -0.361661    1.02629200   -0.95908200
Se   19.30162000    6.90624000   16.13992000      0.671940   -0.30038100   -0.26553700
Se   20.05539000   12.16211000    5.11876000      0.268049   -0.60199700    1.04955000
Se   17.29377000   13.33868000   12.83198000      0.142866    0.22608100   -0.17418000
Se   19.60488000   18.37517000    5.15869000     -0.147507   -0.03710700    0.30685700
Se   21.09485000   20.89731000   14.78102000     -0.228585   -0.10408800   -1.26801100
Se    5.68928000    6.95370000    6.24115000     -0.727573   -0.12875400    0.21035900
Se    2.76824000    2.41939000   15.53308000     -0.513247    0.35487100    0.99414600
Se    3.53965000    9.62787000    3.51063000     -0.234345    0.34251200    0.41870500
Se    4.38809000   11.36943000   13.89562000     -0.484971   -0.38852100   -0.55435100
Se    4.61469000   14.41787000    5.16894000     -0.282112    0.12126700    0.16276400
Se    2.66599000   16.17090000   18.33039000     -0.655935    0.11344100   -0.51722600
Se    1.49902000   22.84076000    5.75444000     -0.173647   -0.65996400    0.53377300
Se    2.62061000   19.09034000   12.41640000     -0.662102    1.24492500   -0.17108600
Se   12.27949000    1.12739000    5.43978000      0.374143    0.39390100    0.41512100
Se    8.59840000    4.86224000   16.13437000     -0.024139   -0.69356000    0.23583800
Se   11.16408000   10.95289000    7.02908000      1.320137    0.76770900    0.62886300
Se   10.66444000   11.84960000   16.13297000      0.332946    0.10246300    1.24496300
Se    9.58613000   15.97800000   10.30244000      1.064231    0.01164800   -0.75646600
Se   11.71888000   19.65518000   19.07506000      0.109618    1.11788800   -0.12318400
Se   10.01666000   22.63794000    3.60591000      0.806820   -1.34922000    0.78835800
Se    8.46557000   20.05277000   18.14769000     -0.560597   -0.14294000   -0.88569400
Se   13.79580000    4.67148000    4.63072000     -0.134066    0.06161900    1.18112800
Se   14.26361000    5.98836000   18.72594000     -0.169179   -0.11144900   -0.07533700
Se   17.25522000    9.79944000    6.39429000      1.552935    0.22230900    1.80392000
Se   17.30901000    6.94131000   13.53757000      0.224647   -0.46791600    0.18103300
Se   17.82388000   13.50388000    5.63054000     -0.648401   -0.03319700    0.13183600
Se   12.87287000   18.70193000   15.23590000      0.665849   -0.67944900    0.30861700
Se   16.05700000   23.43120000    3.94183000     -0.020253   -0.14493600    1.29395300
Se   17.16952000    3.88243000   14.18435000      0.378712   -0.47569400    0.38801100
Se   22.02172000    4.39635000    7.29295000     -0.527575   -0.77329400    0.05675200
Se   22.37456000    4.94937000   14.09317000     -0.125144    0.09222800    0.84385900
Se   17.78915000   10.88843000   10.18627000     -0.654028   -0.23868800   -0.20274500
Se   21.75923000   13.82620000   15.75653000     -0.208210    0.00278200   -0.17189100
Se   19.31928000   15.31446000    7.76788000      0.882887    0.59853600    0.40004500
Se   22.41075000   16.15611000   15.62938000      0.873147   -0.11211400   -0.52766300
Se   21.28301000   22.85258000    8.42393000      0.185520   -0.19310100    0.20981700
Se   22.03388000    0.14629000   19.55426000      0.375268   -0.09917900   -0.62218300
Se    4.38986000    2.95382000    7.12668000     -0.230916   -0.23385900   -0.55713200
Se    5.55345000   23.55174000   15.66708000      0.290911   -0.15593600    0.12758700
Se    3.44010000    5.01066000    3.31344000      0.465566   -0.31104900    0.30557700
Se    3.93305000    8.66607000   11.34953000      0.623023   -0.46877800   -0.05470200
Se    1.11058000   11.12695000    2.53388000      0.181416    0.32273900   -0.39453600
Se    4.34932000   14.64463000   14.69771000     -0.386229   -0.16450200    0.65311200
Se    4.45946000   17.60177000    1.35323000     -0.965711    0.60868400   -1.39708900
Se    3.98465000   17.54032000   13.19539000      0.892013   -1.62246800    0.57876800
Se    8.97395000    0.69694000    2.72768000     -1.496698    0.60158800   -0.61305400
Se   10.80076000    1.88971000   14.51392000     -0.566083   -0.35004300   -0.07477100
Se   10.75183000    9.82550000    2.51309000     -0.851994    0.22426600   -0.04461200
Se    8.80778000    8.70497000   16.71265000      0.240339   -0.17410200    0.87820700
Se    8.60237000   13.36501000    4.85183000      0.486965    0.05737100    0.18867400
Se   11.44191000   10.72395000   13.17178000      0.414217    0.01939200    1.07211300
Se    9.17311000   19.72465000    2.09429000      1.012204    0.07389000   -0.06905400
Se    9.38951000   22.23533000   15.13873000     -0.045407   -0.12762200    0.02581900
Se   17.69069000    4.89621000    8.89499000      0.508025   -1.22764700   -0.56003800
Se   15.11137000    1.92211000   16.61195000     -0.598526   -1.14978300    0.10719800
Se   16.79107000    7.29663000    4.05150000     -0.111972   -0.36482400   -0.06510400
Se   13.34475000    7.82657000   14.82483000     -0.060069    0.54061200   -0.16525100
Se   17.43647000   11.94184000    2.06801000     -0.368015   -0.11483400   -0.33601300
Se   17.61086000   18.54706000   15.53877000      0.357708   -0.68503100   -0.25684400
Se   15.36058000   16.25749000    3.68924000     -0.099052    0.10069600    1.06120000
Se   16.68656000   20.33284000   14.27999000      0.435693    0.27634400   -0.43991300
Se   22.58476000    1.70279000    5.00952000      0.375184    0.28036000   -0.46069300
Se   22.18260000    0.97127000   12.68070000      0.340877    0.70767500   -0.95014300
Se    0.01669000    8.10654000    5.17938000      0.775857   -1.37333900    0.94693800
Se   21.51539000    7.53969000   13.14583000     -0.062972   -0.59342500   -0.03331500
Se    1.47818000   15.93515000    4.13774000     -0.493655   -0.18453200    0.45336300
Se    0.69613000   12.93842000   15.11242000     -0.333687   -0.92477300   -0.94545600
Se   22.55838000   19.54954000    4.84973000     -0.999490   -0.25713200    0.62784900
Se   21.45200000   21.04696000   10.33991000     -0.644359    0.39659500    0.10465800
Se    2.20392000    4.29095000    7.45722000      0.559633    0.03843800   -1.14576100
Se    2.10772000    3.15042000   12.82238000      0.334860    0.87121100   -0.04100900
Se   22.57128000   11.33224000    5.04822000     -0.522702    1.07937700   -0.81109100
Se    0.42346000    8.87766000   14.98618000      0.801482    0.39864500   -0.99830700
Se    1.54310000   14.77027000    1.59116000      0.914167   -0.33977900    0.22976600
Se    0.81046000   16.33504000   13.97898000      0.084475    0.48189000    1.78221700
Se    3.31044000   20.75039000    1.51281000     -0.510337    0.11480000    0.08916100
Se    5.22072000   17.87668000   17.22595000     -0.981858    1.32935000   -1.05391100
Se   10.49195000    3.55525000    5.06900000      0.698760   -1.40636600   -0.16588600
Se    7.36060000    2.63992000   13.11827000      3.431620   -1.38706000   -0.02601400
Se    7.19024000    9.92749000    3.96587000      0.000194   -0.30657400    0.18278600
Se    8.13529000   10.78463000   13.49219000     -0.591218   -0.38309400    0.48698300
Se    7.54153000   14.67840000    1.81942000      0.463549    0.28205800    0.37307000
Se    9.46764000   14.94089000   14.03489000      0.031490    0.43890800   -0.23837400
Se    7.31668000   21.97799000    8.53965000      0.290081   -0.23536900    1.30420300
Se    5.74107000   20.28245000   15.01523000     -0.130229    0.15962000    0.48924300
Se   14.76997000    1.11574000    2.54283000     -0.224901    0.15541400   -0.40016100
Se   10.46665000    5.39309000   13.57269000     -0.656690   -0.41334700    0.10759100
Se   13.63314000    9.81983000    0.96930000      0.283976    0.28473300   -0.68972200
Se   15.73463000   10.57979000   13.94493000     -0.530958    0.43568800   -0.26253300
Se    9.82122000   16.48445000    6.54876000      0.751913   -0.45095400   -0.15548100
Se   13.76457000   16.79155000   11.20770000     -0.885452    0.80380400   -0.04947300
Se   14.53642000   21.36431000    2.08018000     -0.001416   -0.84321900   -0.40334500
Se   15.85066000   23.15612000   14.02045000     -0.022079    0.08378300   -0.25718300
Se   18.13378000    6.23831000   18.59625000      0.319639   -0.40049600    0.47209900
Se   14.85699000    5.58440000    9.07412000      0.225162   -0.08831100   -0.10711900
Se   20.21815000    8.02397000    2.54083000     -0.468156    0.38530000    0.63222200
Se    0.64390000   12.95762000   12.52213000      0.570925   -0.58761900    0.63788700
Se   19.78454000   15.88076000    4.02453000      0.486106    0.61324300    0.12943000
Se   18.95495000   16.82403000   13.97524000     -0.660867    0.52677200    0.12319100
Se   19.10001000   22.05228000    4.78842000      0.257679    0.78119600   -0.26766000
Se   19.29355000    0.16763000   14.16313000     -1.195832    0.87102600   -0.17818100
