384
23.69824000 23.69824000 19.89960000
Ge    5.09659000    6.78457000   12.40073000      0.036559   -0.71455500    0.62613500
Ge    6.25357000    5.12647000    3.42259000      0.223870   -0.00402500    0.32583400
Ge    1.71339000   13.02744000    7.08973000      0.286903   -0.22348100    0.18594700
Ge    8.64706000   14.51571000   16.40534000      0.792276    0.50661000   -0.03950000
Ge    5.27425000   15.23098000    9.96015000     -0.548159   -0.78333900   -0.04757100
Ge    9.56433000   18.50190000    0.01392000     -0.318347   -0.07458400   -0.17169600
Ge    7.63882000   22.49859000   10.99190000      0.736418    0.10144800   -0.23038100
Ge    6.24745000    1.52382000    0.51973000     -1.482983   -0.60691000    0.09279300
Ge    9.63891000    5.58399000   11.03010000     -1.034126   -0.29853900   -0.40657100
Ge   11.58274000    5.83290000   19.37833000     -1.932349    0.18005400    0.85962600
Ge   10.90037000    9.16169000   10.56018000     -1.763808   -0.83372100    0.62455600
Ge   13.65920000   12.23157000   19.12060000      1.131382   -0.40306100    0.04801500
Ge   11.18554000   17.70500000    8.58107000     -2.032162    0.55444300    1.48169000
Ge   13.07144000   15.95085000    0.58517000      0.690665   -0.32539600    0.08891100
Ge   11.40245000   23.32386000    9.08872000     -0.185579    0.68416100    0.94165900
Ge   16.12790000   22.67542000   19.29592000     -0.368147   -0.43095100    0.75148300
Ge   18.46422000    5.08847000   11.37221000     -0.388827    0.31112800    0.90761000
Ge   19.82411000    9.22998000   16.95229000      0.693326    0.02777700   -0.01503900
Ge   20.05142000   11.89730000   10.04130000     -1.420534   -0.08839000   -0.91134000
Ge   18.13124000   11.67839000   17.84622000     -0.076710    0.38216900    0.54936800
Ge   15.15566000   19.33250000    8.69527000     -0.086533   -0.13443500    0.69568900
Ge   18.69907000   15.62535000   19.28950000     -1.039282    0.09584400   -0.22804500
Ge   19.83354000    2.00808000   12.49290000     -0.499767   -0.00227100    0.56614900
Ge   20.29048000    4.58656000    1.63083000     -0.150761   -0.30855700    0.18319900
Ge   23.40428000    5.79984000    8.83195000     -0.163633    0.12284100    0.54333300
Ge    2.26224000    3.47683000    4.89918000     -1.176110   -0.29187500   -0.45284800
Ge    1.76161000    9.58326000    9.82924000      0.160689    0.14199600   -0.71146800
Ge    0.15125000   10.14806000   19.86827000      0.125142   -0.84089600   -0.43306800
Ge   21.81252000   16.08140000    9.21437000     -0.291859   -0.96933700   -0.14600600
Ge    1.28892000   14.22778000   19.11476000     -0.416173   -0.69233800    0.46243000
Ge   19.05248000    1.47464000    9.94883000     -0.403442   -0.68627400   -0.60956700
Ge    0.58507000   21.43672000    0.19590000      0.280553   -0.63812200   -0.66401900
Ge    4.54729000    7.57417000    8.80882000      0.705920    2.28539800   -0.71599800
Ge    1.77925000    6.83385000   19.23499000      0.150163   -0.73063900    0.62986600
Ge    2.19418000   10.25207000    5.47972000     -0.837066   -0.41986000    1.05071600
Ge    4.19801000   12.58063000   16.23846000      0.202642   -0.35396400   -0.29079200
Ge    5.45459000   17.73979000    3.73038000      0.538935    0.56568900   -1.27306200
Ge    0.06255000   17.53771000   18.43982000      0.488026    0.69839400    0.21493700
Ge    4.96085000   20.29197000    8.87884000      0.675549    0.02250600   -0.44795700
Ge    4.16068000   22.87660000   18.18287000     -0.166119    0.70694800   -0.36132500
Ge    9.71845000    2.49224000    7.34697000      0.423195    1.59331000    0.22235700
Ge    6.95768000    8.81898000   18.51513000      0.576389   -0.48860100    0.34065900
Ge    5.88379000   12.38165000    6.41972000      0.857858    1.16910300   -0.31949100
Ge    8.27233000    9.44366000    1.82280000      0.453743    0.69949600    1.75981600
Ge    8.01065000   18.29113000    6.72972000      0.174740    0.54060900    0.88911000
Ge    4.42299000   19.82819000   19.10771000     -0.648694   -1.19484200   -1.28249800
Ge   10.90950000   22.73539000    5.82534000     -0.146290   -0.07245800    1.21148000
Ge   10.27579000    1.88596000   17.72416000     -1.809242    0.11763000    0.21031400
Ge   12.84504000    6.45220000    5.73003000     -0.327708    0.94280100    1.04832900
Ge   13.90664000    8.38038000   18.81164000     -1.035081   -0.24884100   -0.54683100
Ge   16.25122000   12.26603000    6.69704000     -1.408364   -0.53257600    0.90777300
Ge   16.58410000   15.44082000   16.39583000     -0.292148    0.86957800   -0.54403400
Ge   12.42864000   16.69795000    5.18830000      0.380871   -0.19018600   -0.38599200
Ge   15.39482000   18.72656000   16.78550000     -0.911123   -0.68770800   -0.45184500
Ge   15.23415000    0.24829000    9.84431000      0.785393    1.09252500    0.55858700
Ge   16.63241000    3.97457000   18.49980000     -0.712943    0.03518800   -0.42865700
Ge   20.08763000    5.60741000    8.01805000      0.346818   -0.69998500   -2.19529700
Ge   21.43865000    5.58262000   16.55100000      1.362599   -0.90537400   -0.22184700
Ge   19.75533000    8.80664000    7.84051000     -0.378501    0.91522700    0.86100400
Ge   21.96733000   12.94373000   18.80433000     -0.145798   -0.03147200   -0.51612700
Ge   19.40876000   17.86958000    7.45353000      1.017985   -0.39600700   -0.15478100
Ge   20.76339000   18.81362000   16.17876000     -0.454104    0.57147100   -0.00357700
Ge   19.61209000    0.78645000    5.48329000      0.334827    0.41339900   -0.75153200
Ge   19.78887000   21.15140000    0.73890000      0.989219   -0.83978900    0.32592800
Ge    6.04122000    3.37668000    9.44073000     -0.566919   -0.25377700    0.81900700
Ge    4.41181000    3.65045000   17.24870000      0.239861   -0.71620700   -0.46080500
Ge    2.98476000    6.71752000    5.07865000      0.602703    0.16614300    0.71432100
Ge    2.29471000    9.70052000   13.37972000      2.155295    0.74734100   -0.90107400
Ge    2.09123000   17.66074000    6.06525000      0.157871   -0.32370300   -0.26924300
Ge    2.25155000   14.73748000   15.66155000     -0.823166    0.73563900    0.37282300
Ge    0.16116000   19.62534000    9.42158000     -0.180282    0.67571000   -0.45603200
Ge    3.34176000   21.20065000   14.46598000     -0.493944    0.25124000   -0.15433900
Ge    9.75695000    3.21210000    1.93500000      0.635443    0.27730700    0.11238900
Ge    8.66369000    1.92342000   15.66287000     -0.501464    0.53815800    0.61673800
Ge    9.25620000   10.99612000    4.84565000      0.984933    0.06267800    0.73504500
Ge    7.12897000   10.33885000   15.71146000      0.948969    0.00797100   -0.28192900
Ge    9.01842000   14.19352000    7.16765000      0.919355    0.05073200   -1.14236700
Ge   14.55764000   11.62089000   15.94448000     -1.065557   -0.13650000    0.49441200
Ge    7.93442000   21.79042000    5.07251000     -1.346119   -0.18457500    0.20951700
Ge    8.33169000   19.74069000   15.65374000      0.229749   -0.14960900   -0.75095400
Ge   14.40586000    1.80544000    6.64074000      0.839166    0.17979300    0.48526700
Ge   12.76068000    2.69994000   15.78186000     -0.502751   -0.27670800   -0.21834900
Ge   15.43223000    9.43535000    4.57041000      1.769732    0.89275300    0.12895200
Ge   15.78102000    8.22085000   15.53572000      0.347535    0.01367200   -0.61205100
Ge   16.16207000   13.66404000    3.67188000     -1.357433    0.27752600    0.27805500
Ge   13.08197000   16.13909000   15.36418000      0.477026    0.15987000   -0.04382900
Ge   13.97791000   19.24513000    0.44917000     -0.376696    0.42846400    0.76653500
Ge   10.03271000   21.76737000   19.28067000     -0.115152   -0.24340000    0.53732200
Ge   23.31997000    4.20078000    4.22509000      0.438222   -0.41363400    0.91101100
Ge   21.57815000    2.38449000   15.32828000      0.906425    1.04455000    0.48159400
Ge   22.38266000    9.39550000    6.78831000      0.627980    0.16929600   -0.06754200
Ge   20.64454000    9.87433000   13.04180000      0.096053    0.16054300    0.90261100
Ge   22.62983000   16.63244000    3.80329000     -0.321271   -0.35648600   -0.05584400
Ge   19.50162000   13.84335000   13.83102000      0.395932    1.02290000    0.51077100
Ge   20.44531000   20.68897000    6.30613000     -0.025023    0.05492900   -0.44763800
Ge   20.63993000   23.13342000   17.77381000     -0.210180    0.06573100   -0.33574900
Ge    5.93654000    4.57833000    6.01545000      0.727496    0.19427100   -0.02731200
Ge    4.19240000    1.48562000   13.72666000     -0.149180   -0.03084200    0.01202000
Ge    5.19463000   11.45776000    3.93885000      0.442482    0.43944100   -1.11350200
Ge    7.71834000    8.35277000   12.95909000     -0.009071    0.42329900   -0.22247200
Ge    5.48618000   15.43824000    0.69738000     -0.410564    0.32984000   -0.27241300
Ge    3.54167000   12.93569000   12.40568000     -0.345584    0.22430400    1.09428300
Ge    4.32383000   22.40333000    6.26370000      1.177667    0.23774000   -0.08706600
Ge    6.43904000   20.99462000   13.08416000      0.196516   -0.40635400   -0.23605700
Ge   15.30010000    5.84638000    2.56649000     -0.681404   -0.35014100    0.51205600
Ge   13.54723000    0.04100000   13.28884000     -0.307879    0.13192100   -0.24624300
Ge   10.84816000   10.06499000   19.89419000      0.542637   -1.65021600   -0.18584600
Ge   13.75929000    9.37729000   12.61995000     -0.417569   -0.21797700    0.53850300
Ge   10.90385000   13.64402000    2.06061000      0.370057    0.07089200    0.59610700
Ge    7.79077000   17.09490000   10.82881000      0.310304    1.05869600   -0.88802600
Ge   12.60353000   23.05501000    1.77158000      1.054286    0.30068000    0.53978900
Ge   10.88937000   22.51044000   13.48611000     -0.379424   -0.71643600    0.04604400
Ge    0.48153000    1.86618000   18.47406000     -0.229666   -0.30923500    0.86564200
Ge   12.92127000    6.09641000   13.14120000      0.309685    0.50009600   -0.13499800
Ge   17.57616000    8.62337000   19.63109000     -0.209984    0.14395000    0.17334600
Ge   12.89058000    6.77277000    8.38059000     -0.574605    0.00419800   -0.12577100
Ge   20.50665000   13.30580000    2.93379000     -0.275134   -0.05288800   -0.10183300
Ge   16.75108000   16.42189000    8.05419000     -0.395964    0.12189800    0.23332400
Ge   17.18356000   21.21589000    2.82882000      0.146718    0.07816200    0.27993300
Ge   18.75685000   21.32088000   12.85199000      0.036237    0.43680500    0.79033600
Ge    0.37977000    1.36493000    2.90664000      0.900294    0.17420800   -0.61874400
Ge   22.78631000    2.38442000   10.69167000      1.896065    0.40852700   -0.77622900
Ge   23.03038000    9.68092000    3.21453000     -0.483040   -0.77055800    0.12314000
Ge   23.37961000    9.09494000   12.83711000     -1.579658   -0.19073100   -0.74127600
Ge    2.07219000   13.05449000    3.93785000      0.438061    0.92482200    0.52373200
Ge    0.12841000   16.23480000   11.64469000     -0.037590   -1.76417800   -0.20555200
Ge    0.18449000   21.15107000    3.96194000      1.020114   -0.78036400    1.12361700
Ge   20.62780000   18.18018000   12.89005000      0.595248    0.56119400   -0.35878900
Se    2.64537000    0.61830000   19.54890000     -0.308924    0.17122100   -0.03201300
Se    1.68510000    1.48390000   10.12771000     -1.478686   -0.14210600    0.14439300
Se    0.60425000    7.94426000    1.26031000     -0.238935    0.23947700    0.04132100
Se   23.63025000    8.10158000   10.48030000      0.288251    0.38630700    0.58608600
Se   22.06292000   11.50934000    1.51468000      0.060206    0.31241000   -0.48423100
Se    1.85681000   14.45712000    9.43071000      0.000345   -0.78703600   -1.01802100
Se    2.21161000   19.67845000    3.28051000     -0.307326    0.09957300   -0.10385100
Se   23.34063000   18.49630000   11.44517000     -0.429987    1.45648200    1.16741500
Se    7.35583000    2.85083000    2.47422000     -2.407541    1.58494100    1.06753200
Se    5.48238000    3.65586000   13.12505000      0.961243   -0.99609600    0.55879900
Se    9.63443000    5.37407000    4.14740000     -0.110602    0.39014500    0.76079900
Se    7.90857000    9.15215000   10.41080000     -0.251893   -0.17595000    0.41703300
Se    7.91985000   11.08869000    0.24252000     -0.649614    0.87352000   -1.02671600
Se    6.63716000   15.52731000   12.05839000     -0.084282   -0.70632200    0.50864400
Se    7.02962000   20.07412000    3.21985000      0.798832   -0.00154800   -0.32885600
Se    9.60571000   20.67813000   11.59567000      0.225673    0.80174300   -0.33064500
Se   13.46237000    0.53065000   19.67797000      0.995249    0.40959200    0.79436500
Se   12.69729000    2.52766000   12.16275000      0.626883    0.20879300    0.41903900
Se   11.39233000    8.47451000   18.08591000      0.712459   -0.29872300   -0.17333800
Se    9.68859000    9.55179000    8.02489000      1.734062   -0.20989200   -0.21834500
Se   13.56857000   13.35452000    1.40377000     -0.705126    0.64836700   -0.27386100
Se   12.70999000    9.19096000    9.17690000      2.191164   -1.03818200   -1.14738200
Se   15.46504000   16.98400000    1.37126000     -0.594256   -0.76809200    0.94212600
Se   12.40208000   18.60236000   10.90136000     -0.684167    0.55312000   -0.57653700
Se   18.35228000    4.13277000    3.49220000      0.017576    0.04208600   -0.05769700
Se   13.86051000    3.82614000   13.92819000     -0.071539    0.23447100   -0.37670300
Se   15.23932000    4.91145000   16.53290000     -0.079503    0.18666800   -0.43130100
Se   19.98568000    4.17784000   13.98328000     -0.302982    0.14167700    0.01092800
Se   19.69291000    9.62669000    0.79961000      0.895725    0.34784000   -1.14937100
Se   17.36277000   19.16729000    7.48512000     -0.729259    0.07780600   -0.08790800
Se   20.32890000   17.37357000    0.09247000      0.354604    0.45931700    0.60922400
Se   19.19845000   19.64842000   11.05728000      0.974367   -0.41131700   -0.34456500
Se    2.80374000    1.00134000    4.91516000     -0.062171    0.02732600   -0.52968600
Se    2.76782000    5.29390000   12.28358000      0.033333    0.29659700   -0.30295300
Se    5.63935000   11.57951000    1.09622000      0.129215    0.03469800    0.05582000
Se    4.69769000   12.40743000   10.52767000      0.395999    0.23537400   -0.72098600
Se    3.74483000   13.57679000    1.71922000      0.756669   -0.20690600   -0.24763600
Se    2.87884000   15.46795000   11.59870000      0.837442    0.97880600   -0.15591000
Se    5.80918000   21.73748000   19.53937000      0.511449    0.57118300    0.14024600
Se    4.48697000   20.25257000   11.50685000      0.080041   -0.08636300    0.39956400
Se   12.70485000    6.57487000    2.26279000      0.041038   -0.65623400   -0.85403300
Se    8.16320000    3.22357000   10.98511000      1.238800    0.43464000   -0.54605600
Se   11.17140000   11.97035000   18.60270000     -1.046467    1.98715100   -0.53382600
Se   11.05963000   11.51324000   10.69026000      0.035436    1.18261900    1.04734500
Se   11.79885000   15.99290000    2.68420000     -0.836931   -0.16564200   -0.06878800
Se   11.84916000   14.58217000   13.80195000      0.540124   -0.32217700   -0.64598500
Se   11.64867000    0.04656000   18.31258000     -0.591611   -1.74248300   -1.37838800
Se   10.07604000    0.04176000   11.45959000     -0.610785    0.05186800   -0.85857100
Se   12.11021000    3.30146000   18.03000000      0.454028    1.07986600    0.10967900
Se   17.58560000    7.77614000    9.58772000     -0.305310    0.58473900   -0.32686100
Se   16.90153000    9.05397000    2.41017000     -0.405092   -0.14574200   -0.00433900
Se   17.89863000   13.32433000   10.58288000     -0.409865   -0.32380700   -0.70800300
Se   18.16829000   14.51219000    2.40227000      1.250994    0.05817400    0.04264800
Se   14.41335000   15.28364000    7.72618000      0.193118   -0.57055100    0.24396700
Se   18.21129000   22.96089000    1.31589000     -0.885146   -0.13429200   -0.60404000
Se   16.96659000   23.13394000   11.34145000      0.929668    0.60509900   -0.26157100
Se    0.05668000    3.67678000    1.96000000     -0.359903   -0.15824200   -1.02366600
Se   22.55863000    4.68910000   11.07645000      0.206842    0.13951200   -0.62370700
Se   21.84220000    6.41971000    2.65677000     -0.637903   -0.55317300   -0.51659100
Se   20.70186000   12.43232000   12.23784000      1.399327   -1.00954600    0.75308700
Se   22.67319000   14.50222000    2.61415000      0.105905   -0.10222100    0.15907500
Se   21.04464000   15.86010000   11.87026000      0.040820   -0.02125800   -0.11976200
Se   23.28266000   22.52182000    2.20787000     -0.870323    0.48623500    0.08480700
Se   21.48466000   23.57896000   15.25386000     -0.307538   -0.80984100    0.37979600
Se    4.01151000    5.50535000    9.36394000     -0.560511   -2.60522900    1.28592500
Se    4.86601000    6.32094000   18.23865000      0.497172   -0.33508200    0.76168700
Se    3.85119000   11.45865000    7.18505000     -0.863926   -0.18273700    0.76951300
Se    3.71080000    7.97068000   14.64585000      0.888350   -1.06659500    0.21841100
Se    5.98951000   20.02512000    6.46136000     -0.672139    0.16891100   -0.35570600
Se   22.82088000   15.25871000   19.26323000     -0.719518   -0.00279000    0.19772000
Se    0.60221000   21.63737000   11.26648000      0.254012    0.37960700   -0.09916600
Se    2.53558000   21.14539000   17.87777000      0.404987   -0.64065600   -0.75928400
Se    7.81381000    4.25497000    7.99021000      0.152357    0.18243200   -0.95984000
Se    5.78706000    4.74298000   19.87895000     -0.089511    0.89142200   -0.30969900
Se    7.88535000   10.47077000    6.99000000     -1.057102    0.33561200   -0.46313800
Se    3.97107000    9.82354000   18.92869000     -0.626578    0.44310500    0.07112600
Se    5.95300000   17.87295000    9.08243000      1.370739   -0.53192700    0.09727300
Se    6.42421000   16.11473000   18.25448000     -0.592221    0.42696300   -0.28121500
Se   10.04978000   19.78182000    7.93055000     -0.857600   -0.69872800   -0.27292500
Se    8.54475000    1.95504000    0.00922000      2.194823    0.17681800   -2.09602300
Se   13.98266000    2.52288000    9.27608000      0.257734   -0.06963900   -0.42578900
Se    9.07889000    4.63040000   18.29046000     -0.480334    0.23550200    0.75076200
Se   10.44205000    5.88956000    8.68058000      0.942470    0.39171500    0.20600300
Se   16.62353000   12.99087000   16.10240000      0.913766   -0.45144400    0.48654800
Se   13.19067000   17.81756000    7.54213000      1.820035    0.57212200   -1.04865700
Se   14.88508000   16.40011000   18.07409000      0.210724    0.30950100   -0.76047700
Se   15.81567000   23.33124000    7.71541000     -0.059144    0.05765100   -1.17444800
Se   17.71620000    2.13522000   17.10566000     -0.678985    0.61884100   -1.28881200
Se   16.47457000    3.63521000   12.24812000      0.482201   -0.01458700   -0.57914100
Se   21.16900000    3.28232000   17.59626000      0.100934    0.64322400    0.12225600
Se   18.16061000    8.81531000   12.28583000     -0.256636   -0.55471900    0.40731400
Se   21.32062000   10.69969000   15.45782000     -0.909833   -0.45190600   -0.41838700
Se   16.10618000   17.58510000   10.44896000      0.070744    0.53062800   -0.64357400
Se   19.61675000   13.30435000   19.58752000      0.119972   -0.44936200   -0.48851900
Se   19.06770000   23.58198000    7.81147000     -0.577886   -0.73943300    0.72325100
Se   19.24719000   18.69180000    1.87753000     -0.309087    0.78943100   -0.32451900
Se    5.88805000    0.21907000    8.61614000      0.116517   -0.66946400    0.08885000
Se    3.93718000    3.07923000   19.71026000      0.182522   -0.40717000    0.10241600
Se    7.19344000    6.95855000   10.09172000      0.050581   -0.24146400    0.11263700
Se    4.12510000    7.95659000    0.35539000      0.157419   -0.54134800   -0.21085000
Se    4.89019000   16.72741000    5.88328000     -0.439217   -0.37386100    0.72702200
Se    6.77612000   12.57206000   16.71624000     -0.444693   -0.57345400    0.15714400
Se    2.84569000   18.89214000    8.16387000     -0.265540    0.20070500    0.38518700
Se    0.41937000   18.79841000    0.82190000     -0.264592    0.01170700   -0.82125100
Se    8.93792000    0.38141000    7.19210000     -0.065197   -1.94191200   -0.25977400
Se   12.79924000    4.28978000    1.31603000     -0.288224    0.47728100    0.55655800
Se   11.48468000    2.37311000    9.35822000      0.082786   -0.68005400   -0.31300500
Se    8.11396000    7.43318000    0.92780000     -0.435883   -1.58703600   -1.15806700
Se   10.88087000   13.06328000    8.43150000     -0.002608    0.59559400   -0.68357300
Se    9.10980000   14.37944000    0.31270000      0.592008    0.49968400   -0.83052900
Se   13.54867000   22.79959000   10.83569000     -1.794151   -1.07656600    0.31152500
Se   12.42974000   14.13576000   16.72287000     -0.149440    0.48799200   -0.01883700
Se   17.35931000    2.63508000    8.40319000     -0.289586   -2.03352800   -0.23702300
Se   17.58652000    4.72379000    0.85521000      1.168998    0.44629000    1.04677900
Se   15.79545000    7.31703000    7.78393000      0.672489    0.38350600    0.77072200
Se   15.59626000    9.82446000   17.73171000      0.066424   -0.24493400   -0.28798600
Se   14.92401000   13.19359000    8.74707000      0.841520   -0.23773700   -0.80787200
Se   16.40411000   12.53039000   19.59689000      0.085337   -0.14203500    0.40511800
Se   14.72331000   19.39823000    4.33394000     -0.730548    0.16133900    0.60808200
Se   20.35879000   20.71185000   18.13700000     -0.416056    0.09715000   -0.03173600
Se   21.67534000    2.03041000    8.62517000     -0.446819   -0.32370600   -0.56027300
Se    0.31803000    0.99063000   16.28663000     -0.196877   -0.51013100   -0.77386200
Se   20.86458000    7.15427000    9.48080000      1.143203    0.61336900    1.39232000
Se   23.45639000    7.37037000   16.81087000     -1.216586   -1.00828500    0.72013500
Se    0.40403000   11.02513000    8.03661000     -0.440232    0.22510500    0.21748400
Se   21.84368000    8.32422000   18.34215000     -0.171879    0.60914800    0.60267800
Se   21.88195000   18.21186000    8.11160000     -0.432875    0.43334400   -0.33516500
Se   20.40272000   16.33889000   17.59899000     -0.010805    0.25240900   -0.82444000
Se    0.88724000   23.03419000    9.30698000      0.317211    0.47956100    0.21446200
Se    2.73842000   22.91052000   12.53233000      0.105512    0.31186600    0.73410900
Se    2.38026000    8.22175000    7.60390000     -0.015679    0.15442700    0.14737200
Se    1.70354000    8.86148000   17.94950000      0.756853    1.26715900   -0.39987500
Se    0.68792000   16.43273000    8.73581000      0.078153   -0.46454600   -0.37743900
Se    0.79733000   12.16343000   17.91308000      0.640711    0.20793800    0.12534400
Se    2.53870000   20.47521000    6.04632000     -0.254755   -0.64414500    0.32197600
Se   23.16067000   19.15754000   16.41182000      0.576048   -0.46066900    0.56319700
Se    5.70987000   22.83834000    4.09541000      0.357226   -0.32626700    0.43216900
Se    6.24552000    1.53059000   17.13970000     -0.267232    0.17461100    0.12162000
Se   10.40614000    7.10090000    5.88389000     -0.108630   -1.07121500   -1.01851800
Se    6.16334000    8.12053000   15.63624000     -0.526753   -0.07409700    0.05272800
Se    7.23043000   13.43369000    8.46527000     -1.234996    0.43312200    0.42609500
Se    8.42824000   18.90060000   12.53979000     -0.591745   -0.50312400    0.27025300
Se    7.39544000   16.15164000    3.83848000      0.215513    0.99057700    0.22047400
Se    9.60589000   16.79421000   15.40700000     -0.696344   -0.23813000    0.33950000
Se   14.96904000   21.70785000    5.55089000     -0.320473   -0.65360400   -0.52129300
Se   14.72925000   23.19753000   16.15105000     -0.152227   -0.37817000    0.38561800
Se   13.33886000    8.78566000    5.20281000     -1.680647   -0.22803500    0.01013900
Se   10.28052000    7.87028000   12.98902000      0.196521   -0.04368700    0.35650400
Se   14.30369000   12.59831000    5.29385000      0.260796   -0.60043800   -0.70607300
Se   15.01307000   15.14565000   14.15338000     -0.121682    0.48763600    0.80084700
Se   12.34699000   18.96487000    4.00957000      0.782868    0.28598000   -0.02896100
Se   15.85357000   19.99530000   18.98293000      0.509133    0.47447400   -0.51822100
Se   17.51781000    2.07803000    4.41463000      0.219649   -0.29510800    0.17071900
Se   18.97749000    1.22606000   18.71472000      0.986060   -0.99839700    1.06138500
Se   19.84010000    7.20887000    6.10176000     -0.295171   -1.11617900   -0.36840900
Se   19.49769000    6.81406000   16.10583000     -0.946147    0.32173200   -0.60775900
Se   20.12956000   12.02814000    5.04216000      0.280807    0.17778600   -0.04439100
Se   17.33170000   13.41144000   12.85757000     -0.600743   -0.18365100   -0.11118400
Se   19.55147000   18.30530000    5.05793000     -0.257815    0.07359600   -0.16770300
Se   21.21489000   20.89965000   14.58948000     -0.585652   -0.50629100   -0.34392000
Se    5.52557000    7.01252000    6.07842000     -0.505495   -0.39479300    0.08779400
Se    2.76653000    2.25708000   15.75004000      0.143040    0.47022000    0.10674000
Se    3.39585000    9.79499000    3.36660000      0.326916   -0.62608500   -0.28390200
Se    4.42572000   11.11493000   14.11421000     -0.795019    0.50363300   -0.27021200
Se    4.72437000   14.40435000    5.06439000     -0.232543   -0.09931300    0.24257400
Se    2.46611000   16.05726000   18.31571000      0.357297    0.87238600   -0.79289700
Se    1.45606000   22.81226000    5.81600000     -0.384664   -0.06907000   -0.42098200
Se    2.68320000   19.12667000   12.74650000      0.660872   -0.17022300    0.09762000
Se   12.19343000    1.17074000    5.67436000      0.429814   -0.56776100   -0.12502900
Se    8.51675000    5.00722000   16.14703000     -0.025184   -0.76451500   -0.44031100
Se   11.36166000   11.25714000    7.05221000     -0.029032   -0.23154000   -0.19108400
Se   10.73586000   11.87742000   16.24247000      0.060175    0.05426300    0.23561500
Se    9.76138000   15.88865000    9.94647000     -0.031282    0.52527400   -0.15625000
Se   11.52392000   19.81354000   18.96100000      0.721140    0.09838500    0.17914800
Se    9.90132000   22.55490000    3.57070000      0.467487    0.00062600   -0.45023600
Se    8.45593000   20.15018000   18.02226000     -0.239428    0.04440900    1.12903000
Se   14.00349000    4.72384000    4.75922000      0.555702   -0.52246400   -0.18007900
Se   13.81906000    5.78654000   18.72433000      2.810383    0.58038600   -0.42487600
Se   17.25567000   10.05629000    6.66800000     -0.742006    0.13105100   -0.49855800
Se   17.34346000    6.64484000   13.57179000      0.691688    1.04466100   -1.01780500
Se   17.59360000   13.83350000    5.60537000      1.033856    0.24915300    0.02144800
Se   12.90386000   18.56287000   15.17013000      0.567171   -0.68381400    0.62950800
Se   15.94853000   23.31080000    3.98535000     -0.266646    0.54712100    0.31572000
Se   17.21426000    3.79431000   14.48578000      0.360136    0.08181100   -0.15515000
Se   22.15320000    4.41578000    7.10996000     -0.789944    0.07024000    0.15925400
Se   22.48659000    4.98114000   14.11705000     -0.575630    0.17647300    0.77387800
Se   17.44239000   10.84964000   10.21885000      0.989537    0.34319400   -0.07281600
Se   21.60387000   13.81051000   15.56133000      0.006712    0.44656200    0.27119300
Se   19.24178000   15.45671000    7.57239000      0.134745    0.25444000    0.90764200
Se   22.31388000   16.20245000   15.45843000      0.765835   -0.74513300   -0.17012500
Se   21.34249000   23.13247000    8.35197000      0.507158   -0.22990100    0.18603100
Se   21.99979000   23.65124000   19.61423000      0.879354    0.27735300   -0.07845300
Se    4.53381000    3.00873000    7.36828000     -0.768583   -0.38504000   -0.90006700
Se    5.53381000   23.57588000   15.48825000     -0.133223    0.17245800    0.44855000
Se    3.63227000    4.93436000    3.31426000      0.290957   -0.21225800   -0.07300300
Se    3.93753000    8.54857000   11.25583000     -0.160108    0.68510100   -0.30546800
Se    1.21694000   11.11327000    2.35496000     -0.187937    0.17642600   -0.31904300
Se    4.35038000   14.59058000   14.54472000      0.440571   -0.57345400   -0.15109500
Se    4.19165000   17.49415000    1.33990000      0.980514   -0.63292600    0.36844400
Se    4.08585000   17.10421000   13.22458000     -0.656374    0.65185100    0.05788300
Se    8.85967000    0.84813000    2.63463000      0.378179   -0.91385100    0.36743300
Se   10.78034000    1.90331000   14.47611000      0.793293   -0.48548300   -0.09270100
Se   10.65826000    9.96519000    2.34677000     -0.661895   -0.03265900    1.24167200
Se    8.97182000    8.59868000   16.80454000     -1.425239    0.76982200    0.06802000
Se    8.79537000   13.36536000    4.67283000      0.320945    0.35652000    0.88364500
Se   11.58432000   10.81485000   12.99000000      0.489594   -0.27192300    0.14145300
Se    9.34517000   19.71258000    2.31562000     -0.643806   -0.12335100   -0.20639200
Se    8.98093000   22.13576000   15.16981000      0.174440    0.53747500   -0.33542600
Se   17.83100000    4.77900000    8.71759000     -0.093220    1.83465200    0.33259600
Se   14.86661000    1.81658000   16.62417000      0.441556   -0.42731900   -0.03695900
Se   16.76111000    7.27299000    4.14839000     -0.041176   -0.01681400   -0.19220300
Se   13.35183000    8.05603000   14.95335000     -0.765993   -0.59195100   -0.59746500
Se   17.36642000   11.95417000    1.89828000     -0.367376    0.19193500   -0.58256600
Se   17.57155000   18.34527000   15.35606000      0.594955   -0.55609000    0.14455300
Se   15.42212000   16.22703000    3.74589000     -0.050913    0.32788400   -0.56395700
Se   16.74867000   20.35974000   14.36978000      0.144163    0.23238000   -0.51765900
Se   22.99000000    1.63995000    4.95352000     -0.789266    0.63415300    0.52766200
Se   22.09288000    1.06833000   12.43562000      0.144088   -0.70724900    0.53773000
Se    0.11187000    8.08992000    5.09918000      0.155354    0.16425100    0.26953000
Se   21.58303000    7.39666000   13.43385000      0.261032   -0.22653500   -0.28306800
Se    1.91782000   15.78042000    4.13809000     -0.776744    0.09835600    0.55227800
Se    0.76368000   12.90715000   14.85049000     -0.103342   -0.93614800    0.92043000
Se   22.60919000   19.52726000    5.19820000      0.015216    0.77917300   -0.29424600
Se   21.26967000   21.12186000   10.35144000     -0.509947   -0.30801900    0.14120400
Se    2.32283000    4.19757000    7.17818000      0.320651    0.48067500   -0.03013800
Se    2.27529000    3.12368000   12.76430000     -0.439528   -0.00537600   -0.00140300
Se   22.49216000   11.33769000    5.12176000     -0.551320    0.35517300    0.11771400
Se    0.79045000    8.91195000   15.01623000     -0.250515    0.18753200    0.15803300
Se    1.75592000   14.86298000    1.69401000     -0.364611    0.01607200   -0.41027800
Se    0.87194000   16.25639000   14.11979000     -0.378909    0.66973700    0.79551800
Se    3.65768000   20.48069000    1.42436000     -0.579805    0.91493400    1.51221900
Se    5.03731000   17.87734000   16.94039000      0.741532   -0.36866700    0.78583400
Se   10.71791000    3.11801000    5.20574000     -0.217167    1.14326800   -0.40471900
Se    7.81752000    2.49601000   13.22700000     -1.539479    0.59288400   -0.36587900
Se    7.25494000    9.96714000    4.03360000     -1.086820   -1.29968700   -0.90725900
Se    7.99536000   10.76846000   13.54648000      0.144848    0.06827800    0.09822100
Se    7.61647000   14.58758000    2.08127000     -1.064633   -0.45255900   -0.23601100
Se    9.53499000   15.04529000   13.80887000     -0.241443    0.11560300    0.34678200
Se    7.26211000   21.78602000    8.52602000     -0.086134    0.94111000    0.91813100
Se    5.69410000   20.17394000   15.30263000     -0.094610   -0.24437600    0.17566200
Se   14.47830000    1.17969000    2.44197000     -0.152533   -0.93396900    0.22901800
Se   10.47412000    5.46376000   13.48900000     -0.247304   -0.34494800    0.45039300
Se   13.39766000    9.81929000    0.76658000      0.231526    0.67738100    0.05907400
Se   15.54650000   10.46785000   14.02549000      0.812412   -0.14345200   -0.33806900
Se    9.89594000   16.50012000    6.31010000      0.322283   -0.33338400    0.28175700
Se   13.89892000   16.92909000   11.05737000      0.131474   -1.06748800    0.72343200
Se   14.69545000   21.45602000    1.85728000     -0.612236   -0.62985700   -1.50168900
Se   15.87759000   23.07930000   13.98871000      0.157728    0.48890500   -0.33805000
Se   17.97053000    6.33296000   18.69806000      0.293889   -0.22144400    0.15279000
Se   14.88438000    5.67747000    9.28077000     -0.377177   -0.03594000   -0.08292600
Se   20.04201000    8.08656000    2.48093000      0.046747   -0.56902400    0.97470300
Se    0.83399000   12.81119000   12.58601000      0.807068   -0.30919600   -0.72774900
Se   19.93622000   15.99023000    4.07413000      0.416524    0.56151200   -0.07496900
Se   18.90272000   16.74964000   13.71102000     -1.098258   -0.46032600    0.48006400
Se   19.13010000   22.16567000    4.62240000      0.525244   -0.26975300    0.21948800
Se   19.13874000    0.32447000   14.27091000      0.084196    0.26681800   -0.03086100
