384
23.69824000 23.69824000 19.89960000
Ge    5.00950000    6.77884000   12.48205000      0.283267   -0.43906900    0.59067100
Ge    6.27790000    5.10545000    3.39074000      0.249162    0.05462100    0.22055000
Ge    1.68672000   13.06125000    7.06585000      0.436001   -0.30465000    0.25231700
Ge    8.61288000   14.51054000   16.37630000      0.774105    0.52247000   -0.11736800
Ge    5.28620000   15.23812000    9.91633000     -0.498740   -0.84518200    0.05663000
Ge    9.52131000   18.48309000    0.03630000      0.028119    0.20963400   -0.25261600
Ge    7.77955000   22.49553000   10.91890000     -0.023456    0.15706500    0.48626800
Ge    6.22654000    1.45827000    0.51226000     -1.321922   -0.46176600   -0.06382200
Ge    9.64204000    5.58105000   11.06175000     -0.999303   -0.38170800   -0.44427000
Ge   11.58401000    5.84953000   19.38058000     -1.986669    0.29797400    0.91598200
Ge   10.87384000    9.11097000   10.57766000     -1.688582   -0.54467300    0.43262700
Ge   13.70840000   12.26564000   19.17549000      0.721484   -0.64100000   -0.08079000
Ge   11.18912000   17.68284000    8.62328000     -1.648494    0.93456900    1.06041900
Ge   13.01807000   15.94158000    0.63818000      0.944311   -0.28419200   -0.49752600
Ge   11.42547000   23.26804000    9.08976000     -0.290806    0.76006400    0.84310900
Ge   16.15488000   22.69494000   19.34294000     -0.281205   -0.47509000    0.80878800
Ge   18.46546000    5.15606000   11.40351000     -0.452053    0.26815600    0.93697200
Ge   19.83650000    9.21619000   16.96186000      0.650425   -0.07673000    0.01470600
Ge   20.07500000   11.83072000   10.04443000     -1.563927   -0.02986900   -1.00380900
Ge   18.12219000   11.69710000   17.83884000      0.004868    0.18275800    0.58347000
Ge   15.12281000   19.39448000    8.71240000      0.072007   -0.36094800    0.83656200
Ge   18.67504000   15.56132000   19.29676000     -1.221489    0.51726400   -0.10057800
Ge   19.77714000    1.98732000   12.50508000     -0.249308    0.10613100    0.69524800
Ge   20.25465000    4.60737000    1.59611000      0.046078   -0.39821800   -0.01074700
Ge   23.41288000    5.83158000    8.80125000     -0.148324    0.04887900    0.57661900
Ge    2.24909000    3.50954000    4.91598000     -1.068690   -0.78689200   -1.51285400
Ge    1.71234000    9.65675000    9.84071000      0.267842   -0.22301200   -0.62999100
Ge    0.13660000   10.14549000   19.89793000      0.241176   -0.87631700   -0.56803400
Ge   21.77204000   16.09627000    9.15502000     -0.463913   -1.63704800    0.39382500
Ge    1.26531000   14.16547000   19.13996000     -0.113367   -0.10011500    0.33476100
Ge   19.02808000    1.53059000    9.96159000     -0.232329   -0.77142100   -0.70450600
Ge    0.57781000   21.40328000    0.22258000      0.310464   -0.61065200   -0.92623100
Ge    4.60678000    7.58059000    8.79306000      0.403566    1.45655500   -0.40741600
Ge    1.76746000    6.89149000   19.22763000      0.147105   -1.32676200    0.51697400
Ge    2.18209000   10.22607000    5.44944000     -0.802604   -0.37079600    1.31409300
Ge    4.13188000   12.59891000   16.24277000      0.338608   -0.48065300   -0.23928800
Ge    5.46868000   17.77791000    3.77028000      0.772411    0.22014200   -1.52821500
Ge    0.08292000   17.56341000   18.48160000      0.457661    0.68639800   -0.16650600
Ge    4.89516000   20.31310000    8.84427000      0.811450    0.06047600   -0.15757500
Ge    4.16333000   22.89696000   18.20360000     -0.038445    0.02807600   -0.49440300
Ge    9.73426000    2.50487000    7.36272000     -0.026662    0.97114000    0.23802200
Ge    6.99118000    8.79604000   18.50199000      0.395155   -0.37859900    0.57543000
Ge    5.89473000   12.37527000    6.37541000      0.696499    1.24396400    0.11367600
Ge    8.28738000    9.39231000    1.86036000     -0.023383    0.00685200    1.10429800
Ge    7.97620000   18.30788000    6.74989000      0.382985    0.42486500    0.89872600
Ge    4.40139000   19.78628000   19.16203000     -0.416136   -0.87259500   -1.68968200
Ge   10.93058000   22.71131000    5.81662000     -0.351497   -0.02654600    1.16235900
Ge   10.28432000    1.94842000   17.70832000     -1.520583   -0.36932100    0.39583200
Ge   12.81091000    6.40936000    5.72935000      0.084823    1.15578400    0.75926400
Ge   13.91485000    8.29514000   18.74941000     -1.102930    0.42392600    0.06018900
Ge   16.22793000   12.30740000    6.73523000     -1.046951   -0.10680800    0.31572700
Ge   16.59798000   15.47156000   16.43086000     -0.377704    0.83441400   -0.48673600
Ge   12.41399000   16.66140000    5.17207000      0.518681   -0.28757300   -0.19939500
Ge   15.40198000   18.74520000   16.77651000     -0.803148   -0.89675900   -0.34012400
Ge   15.19504000    0.25718000    9.87464000      1.759348    1.34357000   -0.15054800
Ge   16.63127000    3.93833000   18.44290000     -0.644570    0.36109500    0.23382000
Ge   20.14305000    5.55624000    8.01533000      0.227056   -0.09754300   -2.05206000
Ge   21.44858000    5.59175000   16.55378000      1.474979   -0.95147000   -0.04286300
Ge   19.76001000    8.86784000    7.89136000     -0.455592    0.46882800    0.03689700
Ge   21.94846000   12.95889000   18.78502000     -0.115268    0.02206400   -0.51317800
Ge   19.44408000   17.85759000    7.41166000      0.577724   -0.12514000    0.04433200
Ge   20.71362000   18.77542000   16.16092000      0.028943    0.89178500    0.01927900
Ge   19.60943000    0.73718000    5.47967000      0.392639    0.83680000   -0.75539200
Ge   19.83570000   21.14716000    0.71810000      0.734723   -0.60011300    0.61881000
Ge    6.00580000    3.39107000    9.53683000     -0.538733   -0.05880800    0.38565400
Ge    4.37753000    3.66842000   17.20208000      0.345245   -0.78115800   -0.06035700
Ge    2.97037000    6.74115000    5.07698000      0.601335   -0.03939300    0.53816100
Ge    2.37110000    9.74902000   13.36834000      1.711194    0.38679300   -1.02052100
Ge    2.12104000   17.68325000    6.05783000      0.166743   -0.47462900   -0.42662100
Ge    2.28128000   14.74668000   15.65846000     -1.193296    0.37682200    0.61078400
Ge    0.14737000   19.64850000    9.40717000     -0.254116    0.56640400   -0.05698000
Ge    3.34099000   21.24429000   14.49119000     -0.431321    0.23992800    0.01403300
Ge    9.80302000    3.27221000    1.93779000      0.662404    0.08309100    0.04738800
Ge    8.67197000    1.94005000   15.66959000     -0.571493    0.56031600    0.65308800
Ge    9.21531000   10.97200000    4.83871000      1.309709    0.34406200    0.69700300
Ge    7.11348000   10.36091000   15.69428000      0.964341   -0.21264600    0.04831500
Ge    9.02643000   14.17418000    7.15045000      0.645141    0.26211500   -1.13243000
Ge   14.59413000   11.61217000   15.95482000     -1.013323   -0.12625300    0.58756500
Ge    7.88359000   21.76516000    5.02273000     -1.076075   -0.02476700    0.29468900
Ge    8.35285000   19.72082000   15.67647000      0.062885   -0.16743500   -0.96739900
Ge   14.38971000    1.79960000    6.69479000      1.077692    0.13397300    0.30685600
Ge   12.78954000    2.72871000   15.75284000     -0.968762   -0.81399800    0.44303400
Ge   15.39922000    9.40798000    4.52155000      2.965175    1.26019600    0.02883900
Ge   15.79717000    8.15793000   15.57862000      0.135395    0.21367900   -0.59464500
Ge   16.12351000   13.67649000    3.65121000     -1.071330    0.26137900    0.58915000
Ge   13.08604000   16.12033000   15.38349000      0.217785    0.05858700    0.12845400
Ge   13.97921000   19.26276000    0.46488000     -0.353118    0.12404100    0.55923400
Ge   10.04306000   21.73218000   19.34968000     -0.348214    0.23320300    0.48497400
Ge   23.30762000    4.21310000    4.17675000      0.466153   -0.43025100    1.15794800
Ge   21.69154000    2.37436000   15.36194000      0.842801    1.08300200    0.41348200
Ge   22.41377000    9.34921000    6.85803000      0.583180    0.31750500   -0.42561900
Ge   20.64977000    9.86398000   13.12036000     -0.008312    0.14898700    0.54965000
Ge   22.65664000   16.58671000    3.88381000     -0.455963   -0.15411400    0.08841700
Ge   19.50965000   13.81526000   13.87517000      0.268755    0.84351300    0.09855000
Ge   20.44084000   20.71124000    6.29053000     -0.126467    0.02885300   -0.31689400
Ge   20.68249000   23.17970000   17.74909000     -0.466180   -0.20132100   -0.32300800
Ge    5.91194000    4.60196000    5.96028000      0.712672   -0.10614900    0.23294700
Ge    4.16660000    1.51745000   13.64090000     -0.165025   -0.08159400    0.34964500
Ge    5.18853000   11.45884000    3.94277000      0.363492    0.34757800   -1.33089400
Ge    7.73147000    8.38418000   12.91498000     -0.350995    0.10735700   -0.02911100
Ge    5.45089000   15.39839000    0.66580000     -0.153553    0.43542600   -0.19427000
Ge    3.58429000   12.93297000   12.48092000     -0.218450    0.19597700    0.36599400
Ge    4.32239000   22.35762000    6.25237000      1.186256    0.48357600   -0.14462000
Ge    6.40673000   21.01738000   13.12645000      0.220004   -0.30185900   -0.26578800
Ge   15.24677000    5.92219000    2.50070000     -0.262646   -0.45699300    0.71712300
Ge   13.55355000    0.03912000   13.29852000     -0.440863    0.15486200   -0.26686200
Ge   10.76808000   10.06646000    0.00769000      0.768068   -1.15657100   -0.98987600
Ge   13.75839000    9.29685000   12.63902000     -0.351532   -0.02142600    0.32554400
Ge   10.89147000   13.61321000    2.12113000      0.222989    0.34355100    0.32388800
Ge    7.83041000   17.14754000   10.79230000     -0.159475    0.40288700   -0.33687600
Ge   12.58086000   23.02749000    1.74097000      1.089916    0.42671900    0.24335200
Ge   10.81193000   22.53642000   13.52749000      0.085879   -0.73975800    0.38069200
Ge    0.47826000    1.87010000   18.47887000     -0.239607   -0.18914600    1.13409700
Ge   12.97372000    6.11896000   13.13716000     -0.109516    0.45665700    0.04589800
Ge   17.54577000    8.62784000   19.65139000     -0.096569   -0.06118900    0.19571000
Ge   12.81414000    6.77655000    8.32270000      0.230327   -0.04137100    0.50819400
Ge   20.53014000   13.34811000    2.87317000     -0.634889   -0.44551500    0.23462000
Ge   16.65661000   16.46822000    7.99101000      0.007743    0.26208200    0.50664800
Ge   17.15730000   21.16354000    2.83006000      0.234064    0.39638200    0.08190300
Ge   18.73668000   21.31749000   12.86996000      0.221116    0.51587000    0.72072400
Ge    0.41303000    1.37021000    2.84259000      0.777679    0.19133500   -0.10602500
Ge   22.83053000    2.42957000   10.70445000      1.556317   -0.62329800   -1.58648500
Ge   22.97428000    9.74465000    3.15663000     -0.257447   -0.87748000    0.40923300
Ge   23.32438000    9.12536000   12.90997000     -1.335207   -0.31734400   -0.86717000
Ge    2.10916000   13.05287000    3.91037000      0.340318    0.94245200    0.48806800
Ge    0.13936000   16.19182000   11.58418000     -0.107739   -0.88116400    0.16555600
Ge    0.19133000   21.10939000    3.95941000      0.706014   -0.02326800    0.47711100
Ge   20.60503000   18.19269000   12.89877000      0.624398    0.42940300   -0.31418600
Se    2.66615000    0.58395000   19.52115000     -0.426582    0.35695200    0.14441900
Se    1.69719000    1.45145000   10.08561000     -1.445316   -0.01099100    0.17398100
Se    0.63936000    7.86171000    1.26608000     -0.431918    0.51971900    0.30804900
Se   23.58997000    8.10401000   10.49670000      0.442346    0.69308000    0.61617100
Se   22.05596000   11.52960000    1.49618000     -0.034590    0.44986300   -0.47819700
Se    1.79632000   14.47270000    9.43719000     -0.017880   -0.95483700   -1.08816000
Se    2.23078000   19.69419000    3.25823000     -0.351504   -0.08450300    0.04446900
Se   23.34369000   18.52510000   11.48324000     -0.252633    0.90022500    0.92914900
Se    7.40867000    2.85332000    2.40850000     -2.848463    1.80244200    1.08348500
Se    5.49979000    3.65632000   13.13427000      1.157935   -1.00935900    0.49542900
Se    9.64164000    5.34892000    4.15839000     -0.098068    0.38419200    0.63397100
Se    7.92019000    9.08972000   10.42673000      0.098173    0.76075100    0.18571900
Se    7.95993000   11.01642000    0.25481000     -0.772080    0.93387700   -1.13907600
Se    6.64510000   15.48581000   12.03664000      0.278763   -0.13512100   -0.05157100
Se    7.01124000   20.03446000    3.23631000      1.002364    0.01714900   -0.51187800
Se    9.55057000   20.70156000   11.52624000      0.856335    0.65921800   -0.19679400
Se   13.44055000    0.59768000   19.65688000      0.887264    0.27923000    1.06183800
Se   12.66084000    2.56218000   12.12900000      0.641593    0.27429300    0.55093300
Se   11.40353000    8.51338000   18.06893000      0.521953   -0.45245500   -0.13766500
Se    9.74315000    9.57097000    7.95980000      1.051676    0.02808100   -0.35667300
Se   13.56844000   13.40981000    1.43119000     -0.685509    0.52076800   -0.06726200
Se   12.70056000    9.20532000    9.21445000      2.040769   -1.25788900   -1.28311100
Se   15.43178000   16.95441000    1.36772000     -0.486312   -0.65909400    0.92901400
Se   12.38576000   18.58454000   10.91766000     -0.708911    0.55363500   -0.53867000
Se   18.38476000    4.10197000    3.43153000     -0.061347    0.09223400    0.08717000
Se   13.83951000    3.87081000   14.01256000      0.392802    0.38920400   -1.26947000
Se   15.26632000    4.87701000   16.51834000      0.082858    0.25613100   -0.54246200
Se   20.01206000    4.15321000   14.00857000     -0.368373    0.07227400   -0.18513100
Se   19.73618000    9.61335000    0.72561000      0.708560   -0.16935700   -0.57902000
Se   17.34501000   19.13860000    7.51128000     -0.494637    0.15777700   -0.20247500
Se   20.33191000   17.34064000    0.04450000      0.252235    0.51429300    1.07051500
Se   19.22954000   19.65748000   11.06955000      0.862212   -0.37893700   -0.41825600
Se    2.83096000    1.00099000    4.94456000     -0.200212   -0.03596200   -0.44527000
Se    2.79436000    5.28177000   12.27901000     -0.102668    0.70194900   -0.52176100
Se    5.61502000   11.58276000    1.11413000      0.384553   -0.08496100    0.14051500
Se    4.69765000   12.38604000   10.54355000      0.171901    0.32973600   -0.33011400
Se    3.73781000   13.53198000    1.72607000      0.956640   -0.25916600   -0.25814800
Se    2.86657000   15.53534000   11.55006000      1.010710    0.78018100   -0.02618800
Se    5.83985000   21.74824000   19.57512000      0.101438    0.35824900   -0.04238800
Se    4.45851000   20.20984000   11.52158000      0.190364   -0.12969700    0.30759500
Se   12.70482000    6.53778000    2.24707000     -0.305540   -0.20448300   -0.68954500
Se    8.13688000    3.20769000   10.95964000      1.370157    0.47365400   -0.34127600
Se   11.17280000   11.98728000   18.56126000     -0.691202    1.65339600    0.40494800
Se   11.04532000   11.47745000   10.60460000      0.068840    0.89276400    1.66821500
Se   11.82536000   16.03309000    2.69525000     -1.295246   -0.37993800    0.31439400
Se   11.87599000   14.58333000   13.78817000      0.349705   -0.18942700   -0.64610000
Se   11.66653000    0.03938000   18.28372000     -0.926737   -1.33663600   -1.44267800
Se   10.08073000    0.04284000   11.50802000     -0.532713    0.36348400   -1.18385700
Se   12.11264000    3.36113000   17.99295000      0.564433    0.95950500    0.04196500
Se   17.55987000    7.78710000    9.58576000     -0.170381    0.52583200   -0.23958600
Se   16.89044000    9.06362000    2.42068000     -0.329065   -0.12745200   -0.03026800
Se   17.86586000   13.29342000   10.58929000     -0.232251   -0.28095800   -0.66158700
Se   18.13908000   14.50547000    2.40545000      1.247136    0.04357500   -0.08538500
Se   14.40857000   15.30530000    7.73648000     -0.077733   -0.63711200    0.26890400
Se   18.19776000   22.96869000    1.31305000     -0.820313   -0.45841400   -0.54687400
Se   16.94541000   23.18419000   11.43151000      0.810263    0.57103800   -0.71700500
Se    0.03701000    3.67701000    1.93725000     -0.291918   -0.11540100   -1.24779800
Se   22.47987000    4.65292000   11.02392000      0.173394    1.08170300   -0.39197400
Se   21.84376000    6.43799000    2.63333000     -0.908381   -0.33543100   -0.41724800
Se   20.71929000   12.42530000   12.21092000      1.345754   -0.82496700    0.92180300
Se   22.68259000   14.51002000    2.66484000      0.324529   -0.16640000    0.03890800
Se   21.09317000   15.86021000   11.86577000     -0.135784    0.06896300   -0.14419100
Se   23.25990000   22.55529000    2.11304000     -0.683598   -0.06972900    1.25108400
Se   21.51590000   23.58282000   15.27039000     -0.478750   -0.75016700    0.36393400
Se    3.97195000    5.49397000    9.43606000     -0.317315   -1.88667100    1.00594800
Se    4.86045000    6.40209000   18.23043000      0.694019   -0.64344100    0.96805600
Se    3.86772000   11.48926000    7.22290000     -0.967921   -0.18420000    0.49000900
Se    3.73623000    7.94673000   14.61514000      0.776677   -1.04781600    0.26593700
Se    6.03247000   20.06969000    6.45711000     -0.731120    0.00225700   -0.24322300
Se   22.81071000   15.29247000   19.27434000     -0.451826   -0.27318700    0.15911400
Se    0.60542000   21.63503000   11.26154000      0.152190    0.24085500   -0.01243500
Se    2.52186000   21.13956000   17.87090000      0.623269   -0.44615100   -0.67545200
Se    7.81824000    4.29574000    8.02994000     -0.189119   -0.09223000   -0.86982500
Se    5.79312000    4.75387000    0.01741000     -0.318158    0.93569500   -0.52497600
Se    7.83443000   10.50006000    6.93510000     -0.166655   -0.03683000    0.13787700
Se    3.96865000    9.79796000   18.97094000     -0.517160    0.49492400    0.18181600
Se    5.95664000   17.85353000    9.11307000      1.218941   -0.28589200   -0.02419800
Se    6.44528000   16.11198000   18.28049000     -0.629773    0.37887600   -0.34064900
Se   10.07916000   19.83710000    7.89278000     -0.850827   -1.10690500   -0.17806000
Se    8.55130000    1.94393000   19.88395000      2.142154    0.21878800   -1.96319200
Se   13.98050000    2.51815000    9.26927000      0.389584    0.08324400   -0.22111700
Se    9.09122000    4.62567000   18.30656000     -0.687781    0.31697800    0.09628300
Se   10.44811000    5.87281000    8.65823000      0.735666    0.41545300    0.31993800
Se   16.65170000   13.00028000   16.14422000      0.835824   -0.34970200    0.26532200
Se   13.19387000   17.86892000    7.52462000      1.641153    0.40954900   -0.90955800
Se   14.90079000   16.39046000   18.10183000      0.172385    0.32244100   -0.78524700
Se   15.77231000   23.37285000    7.67965000     -0.082816    0.23507800   -0.52743400
Se   17.73533000    2.23938000   17.07408000     -0.050394   -0.10306200   -0.87784900
Se   16.48544000    3.61852000   12.28037000      0.592298    0.00963700   -0.23981100
Se   21.16112000    3.30654000   17.61680000      0.202723    0.53468000   -0.00320800
Se   18.14872000    8.81096000   12.24798000     -0.181037   -0.63687200    0.50107100
Se   21.30246000   10.68714000   15.43509000     -0.800256   -0.35573100   -0.16696600
Se   16.18140000   17.63606000   10.45450000     -0.727168    0.36719800   -0.75398400
Se   19.56893000   13.30049000   19.58437000      0.501967   -0.73447000   -0.36030300
Se   19.10955000   23.61248000    7.83364000     -0.964013   -0.72071000    0.66842000
Se   19.22575000   18.65587000    1.90996000     -0.187622    0.89764600   -0.59652000
Se    5.87784000    0.20148000    8.64905000     -0.016741   -0.60983600    0.00044600
Se    3.95550000    3.08706000   19.75257000      0.407908   -0.32659600   -0.24461700
Se    7.14000000    6.99158000   10.10702000     -0.090462   -1.01544400   -0.15180300
Se    4.09090000    7.88340000    0.34391000      0.294899   -0.36776500   -0.17215700
Se    4.92899000   16.71081000    5.88789000     -0.496563   -0.36536500    0.93788700
Se    6.76670000   12.54335000   16.68319000     -0.593481   -0.35051100    0.30063100
Se    2.83827000   18.92607000    8.12353000     -0.288446   -0.02931200    0.55737300
Se    0.37485000   18.78487000    0.80980000     -0.195116    0.00587300   -0.63168800
Se    8.91064000    0.34357000    7.21819000      0.307363   -1.28617700   -0.29679800
Se   12.81680000    4.29140000    1.35873000     -0.325654    0.19880300    0.51785400
Se   11.52365000    2.36404000    9.34700000     -0.150164   -0.78166200   -0.13568100
Se    8.06353000    7.36181000    0.89480000     -0.284252   -0.85759800   -0.76456900
Se   10.84355000   13.05302000    8.41769000      0.127613    1.04280600   -0.18623500
Se    9.06897000   14.38215000    0.30438000      0.710989    0.39131100   -0.34245800
Se   13.52582000   22.84629000   10.80666000     -2.314425   -1.62474500    0.78105900
Se   12.54068000   14.08243000   16.71999000     -0.214963    0.56611000    0.05380100
Se   17.31375000    2.66886000    8.43328000     -0.363344   -2.53602100   -0.28377500
Se   17.62520000    4.72771000    0.91339000      1.004659    0.40413400    0.72407200
Se   15.78736000    7.33010000    7.81731000      0.539831    0.22743100    0.86864400
Se   15.61525000    9.81184000   17.79904000      0.138329   -0.26816700   -0.41582200
Se   14.98185000   13.18399000    8.76026000      0.580757    0.01330400   -0.79509900
Se   16.38826000   12.56524000   19.56792000      0.059105   -0.09891800    0.40927000
Se   14.69383000   19.47779000    4.35690000     -0.436608   -0.38991500    0.34994800
Se   20.36480000   20.73953000   18.15541000     -0.380511    0.14975400   -0.32251500
Se   21.60956000    2.00072000    8.57555000     -0.005343   -0.00431200    0.06125600
Se    0.32131000    0.98106000   16.31773000     -0.284596   -0.60641000   -1.10412300
Se   20.82014000    7.22687000    9.46167000      1.149339   -0.02205300    1.25765000
Se   23.51430000    7.40331000   16.80002000     -1.365554   -0.95818300    0.75580500
Se    0.40813000   11.05670000    8.03118000     -0.438534    0.23726400    0.21198000
Se   21.87305000    8.36008000   18.34793000     -0.136180    0.46804900    0.47472300
Se   21.91663000   18.14867000    8.06940000     -0.465853    1.24296500   -0.60247400
Se   20.38380000   16.35674000   17.66808000     -0.040365    0.14094200   -1.17415000
Se    0.87883000   23.00693000    9.30936000      0.337196    0.55065400    0.07864800
Se    2.77412000   22.90315000   12.58327000      0.109326    0.38998200    0.52463700
Se    2.39931000    8.14566000    7.62882000      0.002492    0.40465000    0.10833700
Se    1.72349000    8.91144000   17.98838000      0.632301    1.40463500   -0.69333800
Se    0.63751000   16.46319000    8.79441000      0.215103   -0.47829500   -0.52643300
Se    0.80321000   12.07707000   17.91565000      0.483554    0.41994800    0.24544000
Se    2.52902000   20.43731000    6.03479000     -0.245118   -0.51758500    0.19265400
Se   23.18068000   19.17054000   16.38897000      0.064658   -0.56886900    0.61798100
Se    5.71466000   22.81924000    4.06440000      0.140161   -0.23740600    0.45467200
Se    6.27148000    1.51751000   17.11424000     -0.246633    0.13750600    0.23250500
Se   10.43981000    7.14199000    5.94954000     -0.333554   -1.06353600   -1.23965700
Se    6.18511000    8.16174000   15.58571000     -0.627897   -0.27411300    0.30609800
Se    7.21918000   13.45283000    8.48183000     -1.133342    0.45833200    0.20505800
Se    8.44791000   18.95916000   12.54882000     -0.802054   -0.75854900    0.21595500
Se    7.44146000   16.10272000    3.88245000     -0.021283    1.36811000    0.20496000
Se    9.60297000   16.81174000   15.36166000     -0.651266   -0.23184800    0.50429200
Se   15.02732000   21.65036000    5.48557000     -0.760263   -0.60805400    0.13976200
Se   14.71357000   23.22299000   16.16659000     -0.233604   -1.15719600    0.12999800
Se   13.40403000    8.79848000    5.18082000     -2.934594   -0.82381900    0.53670100
Se   10.24100000    7.89609000   12.97600000      0.531384   -0.28766300    0.51083500
Se   14.29373000   12.58997000    5.21531000      0.403211   -0.52834400   -0.38120500
Se   14.97591000   15.16719000   14.24475000      0.380874    0.29667600    0.37575400
Se   12.34084000   18.91272000    4.02688000      0.537158    0.61007800   -0.14219200
Se   15.86932000   19.91686000   18.96706000      0.570983    0.60228000   -0.40421600
Se   17.50872000    2.08654000    4.41575000      0.287824   -0.40047000    0.20203700
Se   18.97362000    1.19642000   18.71305000      0.516925   -0.65553600    0.51252500
Se   19.86555000    7.23451000    6.07183000     -0.244034   -0.61501400    0.40668100
Se   19.52098000    6.79756000   16.07950000     -1.001993    0.42021800   -0.49811700
Se   20.15075000   11.98908000    5.05610000      0.010849    0.53977200   -0.52196700
Se   17.31955000   13.42177000   12.85565000     -0.393232   -0.11981600   -0.02744500
Se   19.53359000   18.29005000    5.04192000     -0.387795    0.18505100   -0.47756500
Se   21.21943000   20.88773000   14.52818000     -0.591755   -0.67759100   -0.27017000
Se    5.46882000    7.00876000    6.05044000     -0.364337   -0.24867000    0.16255500
Se    2.75932000    2.24376000   15.81050000      0.287130    0.42966800   -0.03220500
Se    3.37272000    9.81414000    3.33566000      0.378317   -0.63766100   -0.34708100
Se    4.40491000   11.07314000   14.14181000     -0.563393    0.77763500   -0.14028200
Se    4.73831000   14.39931000    5.05473000     -0.185786   -0.09907000    0.15881800
Se    2.44540000   16.07430000   18.27991000      0.020711    0.45675500   -0.53336900
Se    1.43102000   22.79127000    5.82144000     -0.148944    0.27226000   -0.61103300
Se    2.71057000   19.14056000   12.81742000      0.551414   -0.22965000   -0.00490300
Se   12.19262000    1.17450000    5.72059000      0.541147   -1.03297500   -0.12295400
Se    8.49330000    5.01375000   16.11272000      0.181757   -0.94381400    0.30355900
Se   11.41225000   11.32696000    7.06237000     -0.023501   -0.79092400   -0.65831400
Se   10.75613000   11.88678000   16.28589000     -0.000778    0.05649200   -0.38884000
Se    9.80939000   15.88333000    9.85957000     -0.213345    0.48966500    0.08629900
Se   11.51298000   19.86806000   18.93879000      0.713761   -0.51896100    0.24511100
Se    9.90259000   22.51573000    3.56041000      0.407757    0.23798900   -0.33791100
Se    8.44259000   20.16950000   18.01367000     -0.236983    0.04470400    1.43199900
Se   14.05908000    4.72259000    4.78895000      0.488305   -0.42914800   -0.26313800
Se   13.80059000    5.76054000   18.71479000      2.891102    0.54496500   -0.49800800
Se   17.24163000   10.11217000    6.71740000     -0.741828    0.08305200   -0.57043800
Se   17.37666000    6.61865000   13.54816000      0.604446    1.15707900   -0.99287800
Se   17.58564000   13.91150000    5.60238000      0.375029   -0.11429900    0.05660100
Se   12.93325000   18.50706000   15.17771000      0.402145   -0.38656900    0.63500200
Se   15.91347000   23.30282000    4.02073000      0.023602    0.76308900   -0.29105200
Se   17.24093000    3.77569000   14.55698000      0.221540    0.09463800   -0.58152500
Se   22.14791000    4.42041000    7.07473000     -0.623486    0.10414600    0.24975000
Se   22.48847000    4.99327000   14.15552000     -0.445269    0.11123300    0.63591200
Se   17.40238000   10.85387000   10.22081000      0.995683    0.19952800   -0.07471100
Se   21.57046000   13.82052000   15.52675000      0.150771    0.37395700    0.36556300
Se   19.23776000   15.50351000    7.56278000      0.046013   -0.08491000    0.89977700
Se   22.32248000   16.18461000   15.41531000      0.666637   -0.58259500    0.04210300
Se   21.36567000   23.17900000    8.34403000      0.581162   -0.27910800    0.21663100
Se   22.02060000   23.61668000   19.61748000      0.919977    0.37156500   -0.09772900
Se    4.52909000    3.00111000    7.38486000     -0.434193   -0.18245500   -0.82580100
Se    5.53011000   23.58585000   15.47012000     -0.175412    0.20167600    0.44360100
Se    3.68624000    4.91040000    3.31252000      0.120049   -0.25396700   -0.03689700
Se    3.93791000    8.54137000   11.22822000     -0.186087    0.63918400   -0.20521200
Se    1.23451000   11.11870000    2.30451000     -0.221628    0.10877500   -0.16440600
Se    4.35415000   14.56064000   14.52025000      0.654505   -0.56988900   -0.25150300
Se    4.16360000   17.45683000    1.34356000      0.967522   -0.71012600    0.34292500
Se    4.09563000   17.01914000   13.23544000     -0.696955    0.95439400    0.07496200
Se    8.82372000    0.86788000    2.61553000      0.748780   -1.07327400    0.50044800
Se   10.78969000    1.88779000   14.46521000      0.920566   -0.45079900   -0.09007400
Se   10.60523000    9.99741000    2.34043000     -0.135001   -0.18869200    1.69781500
Se    8.95720000    8.60413000   16.83043000     -1.153682    0.72933000   -0.14001500
Se    8.84590000   13.38144000    4.66633000      0.308343    0.06293000    0.79513700
Se   11.63632000   10.81975000   12.98996000      0.305185   -0.24551600   -0.41130800
Se    9.36653000   19.71018000    2.35805000     -0.758249   -0.27281900   -0.41835400
Se    8.90422000   22.13068000   15.16796000      0.102045    0.51395700   -0.35537400
Se   17.85540000    4.77748000    8.68443000      0.023540    2.23761000    0.39307700
Se   14.81905000    1.76818000   16.62514000      0.660448    0.14155800    0.05463300
Se   16.75539000    7.26557000    4.16322000     -0.126628   -0.04611100   -0.25006800
Se   13.32761000    8.09163000   14.95914000     -0.558883   -0.84948300   -0.45778000
Se   17.33807000   11.96076000    1.83920000     -0.348103    0.19943000   -0.29464800
Se   17.59489000   18.26699000   15.33081000      0.271806   -0.10060400    0.03497800
Se   15.43309000   16.23374000    3.74675000     -0.064325    0.20293000   -0.62525700
Se   16.76208000   20.38907000   14.35849000      0.236406   -0.12758800   -0.27683100
Se   23.04389000    1.65138000    4.96387000     -0.623697    0.56736800    0.09281000
Se   22.08813000    1.07566000   12.38967000     -0.137688   -0.68877200    0.54384100
Se    0.15123000    8.06207000    5.10949000     -0.019411    0.54232000    0.21152900
Se   21.60656000    7.35689000   13.48231000      0.078878   -0.14241400   -0.32179500
Se    1.98090000   15.75274000    4.16147000     -0.744061    0.07971300    0.42229300
Se    0.76488000   12.85495000   14.79585000     -0.033309   -0.69377700    1.92795500
Se   22.61068000   19.54386000    5.26680000      0.039490    0.67785400   -0.33359600
Se   21.21119000   21.13243000   10.35837000     -0.420895   -0.36605600    0.19292700
Se    2.36212000    4.18958000    7.10138000      0.173049    0.82656100    1.04924700
Se    2.30208000    3.13509000   12.75092000     -0.651902   -0.36812400    0.06309100
Se   22.45338000   11.37984000    5.12178000     -0.049988   -0.16326200    0.30650300
Se    0.86673000    8.92908000   15.01532000     -0.329740    0.08337200    0.12037300
Se    1.79979000   14.87448000    1.70110000     -0.560415    0.13385500   -0.33355200
Se    0.87795000   16.26397000   14.20959000     -0.407372    0.65164500    0.13185800
Se    3.70708000   20.44840000    1.44493000     -0.523061    1.16196600    1.72271600
Se    5.01667000   17.87042000   16.90722000      0.775022   -0.33957200    0.58385600
Se   10.76352000    3.05032000    5.22208000     -0.355085    1.49930300   -0.48201000
Se    7.88827000    2.47587000   13.23872000     -1.742804    0.66138300   -0.42930700
Se    7.24537000    9.93648000    4.02438000     -1.268502   -1.35890500   -0.88350000
Se    7.95966000   10.75508000   13.57316000      0.447698    0.48579800   -0.36439200
Se    7.60683000   14.56096000    2.13458000     -1.107781   -0.50401200   -0.69676300
Se    9.53531000   15.07542000   13.77726000     -0.110721   -0.12807800    0.33127600
Se    7.24417000   21.77858000    8.56494000      0.028896    0.88476600    0.48410800
Se    5.67915000   20.14722000   15.37041000      0.006715   -0.30106600    0.14759400
Se   14.41359000    1.16458000    2.42425000     -0.144848   -0.94366200    0.32467100
Se   10.45315000    5.45507000   13.49106000      0.093336   -0.03101000    0.31636400
Se   13.35380000    9.86460000    0.75798000      0.311011    0.32276800   -0.44011500
Se   15.52597000   10.44627000   14.03309000      0.925495   -0.13166800   -0.40564500
Se    9.93359000   16.48226000    6.26689000      0.110006   -0.17542800    0.35992100
Se   13.89891000   16.92894000   11.05328000      0.690392   -0.88859500    0.63678600
Se   14.70673000   21.44418000    1.76297000     -0.484471   -0.30339400   -1.28356900
Se   15.88812000   23.07873000   13.96750000      0.120834    0.50413200   -0.27175300
Se   17.95382000    6.34087000   18.72372000      0.213691   -0.04763300    0.11827400
Se   14.91171000    5.67081000    9.33690000     -0.839038    0.43221500   -0.50237500
Se   20.00188000    8.07872000    2.51574000      0.214763   -0.14430100    0.39611300
Se    0.89995000   12.76641000   12.59567000      0.893437   -0.15259100   -1.59347700
Se   19.97951000   16.03254000    4.08111000      0.510343    0.46691100    0.00776300
Se   18.85305000   16.72763000   13.67351000     -0.844173   -0.40384600    0.34541000
Se   19.15582000   22.19020000    4.59660000      0.439327   -0.64629900    0.03631000
Se   19.09505000    0.37378000   14.28932000      0.213827    0.13607600   -0.02746300
