384
23.69824000 23.69824000 19.89960000
Ge    4.91126000    6.59326000   12.80433000      0.112771    0.79225200    0.07812800
Ge    6.55525000    5.10416000    3.21472000     -0.449588    0.79445500    0.69774600
Ge    1.78144000   13.16619000    6.96603000      0.232893   -0.41409800   -0.50399400
Ge    8.65736000   14.65856000   16.06546000      0.101682   -0.66049300    0.20283300
Ge    5.26530000   14.99414000    9.73446000     -0.503325    0.37927900    0.82345000
Ge    9.31365000   18.54620000    0.02195000      0.650670   -0.11331300   -0.57809300
Ge    8.26635000   22.72922000   10.79719000     -0.675449   -1.20911600    1.64540600
Ge    5.81963000    0.97466000    0.36668000      0.264309    0.41219100   -0.00194300
Ge    9.26747000    5.40595000   11.07432000      0.464907    1.15139800   -0.27458800
Ge   11.26169000    6.06276000   19.63009000      0.475785   -0.24738800   -0.26687400
Ge   10.47261000    8.76119000   10.51791000      0.726857   -0.06017400   -0.24584900
Ge   13.89188000   12.18776000   19.50567000     -0.795355    1.35053700   -0.69057900
Ge   11.20267000   18.14801000    8.86988000      0.888592   -1.28905000   -0.84193200
Ge   12.94692000   15.93711000    0.63033000     -1.209610   -0.02977800    0.08244300
Ge   11.34759000   23.20548000    9.21328000     -0.238566    0.02749100   -0.13322200
Ge   16.22668000   22.70660000   19.63123000      0.232447    0.49013500   -2.24805200
Ge   18.47271000    5.44143000   11.70563000      0.439778   -0.81087700   -0.20153600
Ge   20.00698000    9.00404000   17.07657000     -0.700777   -0.10549400    0.07397000
Ge   19.70660000   11.40064000    9.92190000      1.009703    0.90477600    0.34265600
Ge   18.14245000   11.61433000   18.00509000     -0.408490   -0.62421500   -0.43005200
Ge   14.92328000   19.67487000    9.08234000     -0.461859    0.71718400   -1.06266200
Ge   18.14946000   15.44756000   19.35983000      1.113820    0.23311500    0.05070500
Ge   19.53929000    1.97305000   12.69511000      0.717995   -0.21717500   -0.50131800
Ge   20.40963000    4.48110000    1.21899000     -0.380343   -0.46763900    0.21175100
Ge   23.29071000    6.09546000    8.82136000     -0.536767    0.06032300   -0.06360600
Ge    1.97055000    3.36358000    4.42563000      1.618494    0.01334700    0.83717700
Ge    1.48145000    9.96646000    9.79066000      0.617547   -0.29721800   -0.19684400
Ge    0.15433000    9.78194000    0.01594000      0.687176    0.01173500    0.78376500
Ge   21.27307000   15.60982000    8.93937000      0.829150    0.44017900    0.66073000
Ge    1.07798000   13.94751000   19.38447000      0.042319    0.88580500    0.18068300
Ge   18.86477000    1.69646000    9.85298000      0.336003   -0.37745700   -0.09047800
Ge    0.65668000   21.09060000    0.04086000     -0.196541    0.47214700    0.34023000
Ge    4.93053000    7.82021000    8.56869000     -0.350281    0.18341000   -0.71946200
Ge    1.62859000    6.77231000   19.10539000     -0.175839    0.10409100    0.33463800
Ge    1.85692000    9.89453000    5.65388000      1.081989    0.96592800    0.29044100
Ge    3.71915000   12.56755000   16.30065000      0.108318    0.19196500    0.17122100
Ge    5.76853000   17.76860000    3.67941000      0.007729   -0.78963100    0.11322200
Ge    0.36120000   17.81391000   18.34029000     -0.753017   -0.33949900    1.04562400
Ge    4.73389000   20.52556000    8.69164000     -0.291824   -0.44613200    0.63243600
Ge    4.28382000   22.79086000   18.08876000     -0.261713    0.52451000   -0.04034900
Ge    9.63840000    2.66020000    7.44987000      0.130775   -0.24993900   -0.39721100
Ge    7.09997000    8.53915000   18.84968000     -0.700167    0.49069600   -1.00663600
Ge    5.96970000   12.67343000    6.39954000     -0.948177   -0.69245200    0.76664700
Ge    8.23847000    8.84084000    1.95899000      0.064520    1.24247600    0.47389100
Ge    7.94185000   18.48382000    7.24848000     -0.537757   -0.89345500   -0.69328500
Ge    4.18572000   19.36543000   19.09979000      0.294045    0.62896700    0.34020600
Ge   10.83621000   22.50042000    6.11909000      0.506160   -0.10164500   -0.36260100
Ge   10.25483000    2.18768000   17.70273000      1.115054   -0.75678700   -0.66675000
Ge   12.98945000    6.43069000    5.75186000      0.129872    0.34895000    0.73101400
Ge   13.69207000    8.12284000   18.50481000      1.043366    0.33546500    1.00389600
Ge   15.95334000   12.63177000    6.49786000     -0.793389   -0.47916700    0.92623600
Ge   16.67974000   15.84161000   16.51605000      0.841896   -0.70929400    0.31111700
Ge   12.62219000   16.29088000    5.15459000     -0.210398    0.50404500   -0.31086100
Ge   15.25487000   18.49801000   16.62031000      0.593071    0.08009400    0.54307500
Ge   15.33639000    0.47011000   10.02105000     -0.879846   -0.70395000   -0.25608000
Ge   16.43927000    3.91270000   18.42909000      0.658999    0.15124900   -0.44217200
Ge   20.26481000    5.73258000    7.63927000      0.475887   -0.64538300    1.06226400
Ge   21.82049000    5.60846000   16.67352000     -0.991806    0.35924800   -0.27799200
Ge   19.61525000    9.26562000    7.99127000      0.085229   -1.11482700   -0.17519200
Ge   21.80052000   13.16478000   18.40459000      0.481929    0.24857000   -0.49949900
Ge   19.68767000   17.96300000    7.19434000     -0.951855   -0.26570200   -0.17478500
Ge   20.54831000   18.94046000   16.06881000      0.154912    0.41728900    0.79246400
Ge   19.69943000    0.82524000    5.31726000     -0.100211   -0.52058300    0.32859400
Ge   20.30971000   20.96842000    0.88608000     -0.456396    0.10381900    0.00573400
Ge    5.58770000    3.45082000   10.21438000      0.790062   -0.60174500   -0.49109100
Ge    4.36997000    3.57350000   17.01400000      0.580045   -0.04980700    0.71153200
Ge    2.88913000    6.75984000    5.23981000      0.118649   -1.23537800    0.08261900
Ge    2.82858000    9.79978000   12.84588000     -0.407084    0.40488800    1.60282700
Ge    2.45140000   17.52743000    5.86993000      0.570618    0.06890400    1.15491700
Ge    2.07220000   14.76802000   15.95194000     -0.279651   -0.39182600   -0.82739600
Ge   23.52939000   19.95573000    9.58062000     -0.713423   -0.32926300    0.45492700
Ge    3.28452000   21.55548000   14.87854000      0.387399   -0.32990400   -0.03566700
Ge   10.19275000    3.64358000    2.09960000     -0.297967   -0.58134500    0.24846800
Ge    8.51410000    2.37981000   15.80847000      0.326058   -1.78973800   -0.46209400
Ge    9.26250000   10.85430000    4.95839000     -0.316328   -0.43582300    0.23687500
Ge    7.34268000   10.36535000   15.68351000     -0.957618    1.44730800   -1.28749400
Ge    9.09923000   14.30955000    6.84713000      0.141248    0.03770600    0.92858200
Ge   14.69234000   11.47379000   16.20255000      0.746338    0.01260800   -0.20153800
Ge    7.52479000   21.66490000    4.81955000      0.617107    0.21826600   -0.28361700
Ge    8.43920000   19.63407000   15.62522000     -0.593846    0.78170400    0.26184300
Ge   14.57501000    2.04298000    6.87978000     -0.257792   -0.02285800   -0.70000500
Ge   12.58300000    2.59995000   15.80426000      1.327473    0.35691700    0.07118500
Ge   15.75148000    9.59292000    4.64330000     -0.958239   -0.33419600    0.50993900
Ge   15.81612000    7.88894000   15.66750000     -0.357249    0.52922100   -0.40536700
Ge   15.76648000   13.98975000    3.74848000      0.501675   -0.75308100   -0.88559000
Ge   12.84234000   15.83345000   15.57271000      0.692167    0.24161000   -0.87527100
Ge   13.81084000   19.21624000    0.45972000      0.152564   -0.02454600   -0.70255500
Ge    9.99166000   21.68835000    0.06537000      0.463252   -0.36921900   -0.70569500
Ge   23.32682000    4.13158000    4.06921000     -0.629035    0.90353700   -0.62688100
Ge   22.70879000    2.55324000   15.72959000     -0.824488   -0.22257500   -0.02785000
Ge   22.78053000    9.13594000    7.06078000     -0.948315    0.83869500    0.20921900
Ge   20.41264000    9.81870000   13.33298000      0.340829    0.58639200    0.38995900
Ge   22.79117000   16.33626000    4.63944000      0.968458   -0.01883800    0.21444700
Ge   19.48759000   13.82400000   13.89617000      0.032803    0.12649300   -0.74797700
Ge   20.35070000   20.82067000    6.12603000      0.022374   -0.53733600    0.13411200
Ge   20.73973000   23.36263000   17.70865000      0.606016   -0.75051900    0.31798000
Ge    6.01452000    4.59450000    5.78462000      0.353918   -0.08718900    0.69540900
Ge    4.06845000    1.57197000   13.35637000     -0.154770    0.05926000    1.17550600
Ge    5.23979000   11.45172000    3.47045000     -0.298256   -0.86857400    2.52169200
Ge    7.58543000    8.49013000   12.82163000      0.438129    0.52060700   -0.04237100
Ge    5.29820000   15.19782000    0.46884000      0.730309   -0.40769700    0.22293500
Ge    3.91179000   12.79504000   12.72067000      0.916342    0.47416300    1.55320300
Ge    4.61970000   22.33396000    6.08971000     -0.715800    0.58667400    0.43904900
Ge    6.26833000   21.09407000   13.34039000      0.037992   -0.26955900   -0.30412600
Ge   14.98550000    6.22933000    2.33204000      0.351109   -0.41048000    0.75075600
Ge   13.40669000    0.06902000   13.29796000     -0.074368    0.10181300   -0.18527200
Ge   10.49422000   10.04902000   19.70399000      0.860246    0.69741500    0.49410900
Ge   13.74770000    8.94397000   12.76137000      0.875967    0.82535800   -0.03921400
Ge   10.79542000   13.64707000    2.54270000     -0.045046    0.25549100   -0.81352800
Ge    8.06781000   17.31443000   10.71636000      0.100059   -0.88775800    0.15432000
Ge   12.68751000   22.88929000    1.46174000     -0.730929   -0.37876500   -0.43242300
Ge   10.42256000   22.46908000   13.92431000      0.307118    0.18787500   -0.54922100
Ge    0.35341000    1.75891000   18.88263000      0.415278    0.39499400   -0.39302000
Ge   13.09349000    6.43521000   13.11418000     -0.984914   -0.88238900   -0.27217400
Ge   17.44404000    8.57955000   19.85091000      0.717166    0.23152200   -0.29173700
Ge   12.73170000    6.83453000    8.30356000     -0.103966   -2.67794200   -0.61155000
Ge   20.43971000   13.37932000    2.67544000      1.083864   -0.44798000    0.78622200
Ge   16.23717000   16.90987000    7.82501000      0.025029   -0.54083600    0.51822100
Ge   17.06209000   21.01977000    2.80484000      0.015794    0.36720800    0.32567600
Ge   18.82128000   21.49943000   13.20713000     -0.241505    0.22499000   -0.38900500
Ge    0.84781000    1.47682000    2.47418000     -0.465273   -0.03394500    0.07090700
Ge   23.20832000    2.41033000   10.38911000     -2.691933    0.66818100    0.48730400
Ge   22.58228000    9.95488000    3.05431000      0.265398    0.34947900   -0.03554700
Ge   22.96833000    9.12703000   13.21295000      0.465879   -0.23755500    0.08784700
Ge    2.46463000   13.26520000    3.88219000     -0.106320   -0.81731900   -0.01421300
Ge    0.14888000   15.96489000   11.40116000      0.248911    0.94486600    0.77204900
Ge    0.34879000   21.18166000    3.92227000     -0.258775    0.56403800   -0.33525000
Ge   20.71860000   18.33315000   12.81035000      0.751807   -0.52180300   -0.61018700
Se    2.58272000    0.55787000   19.55106000      0.350510   -0.09859400    0.40723900
Se    1.51951000    1.35357000    9.81438000      0.988432   -0.02746600   -0.19697400
Se    0.70664000    7.50104000    1.46950000      0.079161    0.39168400   -1.20614300
Se   23.45679000    8.52060000   10.84425000      0.199918    0.26436200   -0.11790200
Se   21.98556000   11.86579000    1.15515000      0.249878   -0.50389500    0.44016300
Se    1.37196000   14.23592000    9.15380000      0.130685    0.57574100    0.44036800
Se    2.21535000   19.59671000    3.16271000     -0.042386    0.52616500   -0.10509700
Se   23.33569000   18.79541000   11.90009000     -0.185120   -0.84751200   -0.14334200
Se    7.12116000    3.22453000    2.01398000      0.575655   -1.03392200   -0.47546700
Se    5.98298000    3.40919000   13.35066000     -2.875097    1.47700000    0.02431400
Se    9.66377000    5.19437000    4.38167000      0.039763    0.03276900    0.44326800
Se    8.01070000    9.08132000   10.26163000     -0.823650   -0.57636000   -0.26455700
Se    8.02465000   10.58684000    0.07430000      0.161076    0.13200700    0.33839900
Se    6.90183000   15.32892000   11.62093000      0.283179    0.07974100    0.05805300
Se    7.23371000   19.75092000    3.00000000     -1.569816    0.71673200   -0.17084400
Se    9.79556000   20.57005000   11.21037000     -0.494189    0.16698100    0.84025500
Se   13.27519000    0.97872000   19.72118000     -0.594538   -0.88579100   -0.37581800
Se   12.64609000    2.94441000   12.08114000      0.578967    0.18307700    0.50007100
Se   11.49119000    8.53176000   17.81262000     -1.115014   -0.14753900   -0.18871500
Se   10.39428000    9.76474000    7.33496000     -0.701821   -0.86940200    0.05708200
Se   13.42384000   13.74508000    1.66935000      0.056268   -1.08364300   -0.37316600
Se   12.98516000    8.82439000    9.21914000     -0.100730    2.15906100    0.86377600
Se   15.08086000   16.65216000    1.48228000      0.997198    0.77121700   -0.62038200
Se   12.27242000   18.48000000   10.97691000      0.912981    0.32311200    0.97827800
Se   18.63853000    3.86430000    3.39902000      0.401623    0.25466000    0.17645400
Se   13.87290000    4.22171000   14.04109000     -0.523662   -1.47250700   -0.59110000
Se   15.55607000    4.85944000   16.16660000      0.246237    0.36389900    0.58360300
Se   20.02321000    3.99722000   14.08155000     -0.032976    0.76253400   -0.24079900
Se   20.12791000    9.31316000    0.14140000     -1.425126    0.49122800    0.92305300
Se   17.12747000   19.13668000    7.52258000      0.038474    1.08461400   -0.30458600
Se   20.30290000   17.20571000    0.23451000     -0.808148   -0.35520200   -0.68771200
Se   19.46709000   19.46101000   11.05998000     -0.562765    0.19782500   -0.60982800
Se    2.86075000    0.91657000    5.03720000     -0.129734   -0.12745100   -0.25756500
Se    2.72873000    5.42832000   11.98797000     -1.362372    0.19600800    2.40069500
Se    5.67485000   11.51772000    1.26983000      1.057430    0.09054500   -2.51470100
Se    4.67062000   12.43549000   10.67364000      0.744568    0.12213800   -1.61079300
Se    3.93030000   13.21025000    1.54842000     -0.722437    0.66799600   -0.73372400
Se    3.14076000   16.25880000   11.18385000     -0.224349   -0.27556200   -0.12490000
Se    5.91926000   21.90010000   19.75164000     -0.423920   -0.41726100   -0.04516500
Se    4.46674000   19.90998000   11.64737000      0.334585    0.12634600    0.20543800
Se   12.30901000    6.55447000    2.05897000     -0.006384   -0.66543200    0.08304800
Se    8.43413000    3.26977000   10.67322000     -0.450837   -0.95177200   -0.16680500
Se   10.99674000   12.48712000   18.80528000     -0.389744   -0.67621100   -0.98952500
Se   10.97862000   11.27292000   10.73883000     -0.436456   -0.30425300   -0.33333900
Se   11.36817000   16.10938000    2.85110000      0.003053   -0.27978500   -0.44494100
Se   12.07645000   14.68015000   13.50450000     -0.403218    0.32286000   -0.09719000
Se   11.53248000   23.59139000   17.82042000     -0.036760    1.09891500    0.81696200
Se   10.08666000    0.40295000   11.46004000      0.290488    0.18739600   -0.01516900
Se   12.10784000    4.01453000   17.69157000     -0.455168   -0.39156200    0.12573800
Se   17.54900000    8.06339000    9.57520000      0.594523   -0.30973000   -0.14139600
Se   16.84468000    9.06941000    2.30570000     -0.257888    0.04764700    0.43119600
Se   17.67333000   13.16446000   10.56026000      0.695886    0.61184200    0.03885400
Se   18.27353000   14.43605000    2.35911000     -0.146098    0.00453600   -0.17126200
Se   14.18983000   15.24442000    7.92242000      0.271046   -0.13975200    0.25162000
Se   18.04914000   22.74938000    1.25936000      1.078388   -0.30556600    0.37472200
Se   17.08161000    0.04930000   11.61367000     -0.011448   -0.12923700   -0.62173600
Se   23.48380000    3.60586000    1.45447000     -0.026777   -0.48117900    0.32025700
Se   22.01957000    4.73764000   10.45334000      0.857422   -0.69285800    0.41788800
Se   21.42982000    6.52164000    2.35533000      1.042610   -1.38853900    0.09606100
Se   21.07164000   12.03553000   12.24933000     -0.988476   -0.24748500   -0.03926200
Se   22.84483000   14.43548000    3.02740000     -0.673850    0.17945400    0.30623700
Se   21.34106000   15.86880000   11.71788000     -0.559509   -0.42969200   -0.66247100
Se   22.97303000   22.54691000    2.09732000      0.758653   -0.79694400    0.36570100
Se   21.66484000   23.57006000   15.48847000      0.262882    1.01182800    0.08453800
Se    3.71079000    5.09670000   10.05992000      0.897940   -0.02066800   -3.00662200
Se    5.13131000    6.63309000   18.32103000     -0.340424   -0.28733000   -0.66444100
Se    3.81427000   11.77341000    7.53333000      0.531165    0.12010800   -0.18031500
Se    3.87402000    7.71401000   14.88933000     -0.567252   -0.19400400   -0.38874200
Se    6.10354000   20.25231000    6.44998000     -0.043125   -0.78470800    0.03232900
Se   22.68349000   15.33066000   19.39201000     -0.180485   -0.11067000   -0.26078000
Se    0.65756000   21.59504000   11.22540000      0.190195    0.43539600    0.13508200
Se    2.67972000   20.97229000   17.63396000     -0.192437   -0.57549500    0.18081600
Se    7.68436000    4.45789000    8.06694000     -0.291892   -0.51612500   -0.53231100
Se    5.71771000    5.04993000    0.16156000      0.042315   -1.12715000    0.26687100
Se    7.54324000   10.72797000    6.77811000     -0.139614    0.52424200    0.01892700
Se    3.90694000    9.80155000   19.47012000      0.094323   -0.13416200    0.35238200
Se    6.28697000   17.78888000    9.16046000     -0.151880    0.59683400   -0.28551800
Se    6.39268000   16.20834000   18.29281000      0.129886   -0.26562200   -0.27695000
Se    9.98858000   19.76405000    7.63341000      0.166956    0.72854500    0.26471900
Se    8.94987000    1.93870000   19.55856000     -0.631065    0.20909700    1.76511600
Se   14.10437000    2.65464000    9.37467000     -0.261318   -0.11834300    0.28529200
Se    8.82851000    4.73670000   18.33130000     -0.291533    0.17980900    0.87877300
Se   10.49126000    5.82014000    8.68108000      0.043718    0.37003800    0.24245600
Se   17.00271000   13.09624000   16.33623000     -0.081845   -0.41733300   -0.33014400
Se   13.50075000   18.28919000    7.38048000     -0.635854   -0.10898500    0.61092100
Se   14.96756000   16.46222000   18.11473000     -0.535531   -0.11429000    0.29515500
Se   15.54809000   23.58534000    7.56284000      0.638705   -0.38927200    0.88984900
Se   18.17135000    2.56143000   16.78277000     -0.266315   -1.03267000    1.35637100
Se   16.80972000    3.54871000   12.46440000     -0.243150    0.11636700   -1.03635500
Se   21.27836000    3.59157000   17.78459000      0.722126   -0.28668800    0.05410200
Se   18.08675000    8.70357000   12.13175000      0.942676    2.12373600   -0.44705400
Se   21.04850000   10.69028000   15.67313000     -0.284495   -0.08987700   -0.53534800
Se   16.17326000   17.97780000   10.22014000     -0.328441   -1.50700700    0.71764300
Se   19.50641000   13.05308000   19.39813000      0.094413    1.05000700   -0.08135700
Se   19.03730000   23.47604000    8.08493000      0.359134   -0.24627700   -0.53001000
Se   18.99893000   18.82405000    1.83439000      0.223283    0.42895100   -0.59911600
Se    5.61562000   23.61226000    8.83824000     -0.653473    0.24692500   -0.30789300
Se    4.29195000    3.02491000   19.87656000     -0.764129   -0.08943500   -0.89214400
Se    6.86600000    6.74149000   10.17749000      0.776165    0.39869400    0.17220600
Se    4.03594000    7.41699000    0.39136000      0.200824    0.89696400    0.03430600
Se    5.00827000   16.53489000    6.19418000     -0.509274    0.22750100   -0.16746300
Se    6.44437000   12.38329000   16.68029000      0.352813   -0.38156200    0.45249300
Se    2.62771000   19.08372000    8.22567000      0.004791    0.03873700    0.23641200
Se   23.65250000   18.70052000    0.72677000      0.261669    0.15565900   -0.84068700
Se    9.02342000   23.61580000    7.24825000     -0.507827    1.16204100   -0.12993700
Se   12.82193000    4.10385000    1.67875000     -0.739563    1.01776300   -0.21603700
Se   11.65703000    2.01924000    9.29477000     -0.185610    0.71503100    0.08625800
Se    7.78948000    6.85695000    0.57206000      1.549273   -0.06497900    0.94572300
Se   10.72894000   13.31110000    8.36548000      0.442685   -0.17445500   -0.38691800
Se    8.96688000   14.43664000    0.46693000      0.020872   -0.38806400    0.83879000
Se   13.11276000   22.76205000   10.90220000      1.778332    0.13383000    0.29172000
Se   13.22038000   13.78341000   16.81492000     -0.429605   -0.74535700    0.56983800
Se   16.93421000    2.58794000    8.54188000      0.594043    0.77654000   -0.45011800
Se   17.83573000    4.98364000    1.27041000     -0.022572   -0.07946100   -0.13720000
Se   15.67128000    7.52341000    8.25806000     -0.293750    0.68850400   -0.72704400
Se   15.77200000    9.50767000   18.06104000     -0.238589    0.08993900   -0.73753200
Se   15.29439000   13.32420000    8.82667000     -0.841031    0.24762100   -1.37827100
Se   16.36924000   12.91722000   19.41267000      0.181746   -0.21914100    0.01661300
Se   14.46503000   19.31813000    4.25920000      1.035772    0.79139100    0.14960600
Se   20.27713000   20.97930000   18.07109000     -0.225836   -0.26454100    0.11919900
Se   21.34688000    2.03428000    8.43988000      1.033033   -0.11176400    0.36697300
Se    0.35057000    0.63122000   16.28991000      0.332788   -0.52623600    0.12042700
Se   20.86258000    7.35946000    9.54065000      0.259827   -0.63243700   -0.61121300
Se   23.48178000    7.36323000   16.92313000      0.591548   -0.26641100   -0.27091800
Se    0.21814000   11.34200000    8.03235000     -0.030796   -0.25224900   -0.11961400
Se   22.02445000    8.65731000   18.52747000     -0.594275   -1.18380800   -0.15208100
Se   22.03146000   18.04284000    7.61732000     -0.181391   -0.77732000    0.65801300
Se   20.11539000   16.50533000   17.66073000     -0.385808    0.26681900    1.08360000
Se    0.88046000   22.89653000    9.22512000      0.093239   -0.01950900   -0.25994000
Se    3.03799000   23.09472000   12.97867000     -0.162342    0.06224600   -0.49853100
Se    2.48701000    7.82364000    7.84715000     -0.233648    0.94882900    0.10469900
Se    1.98088000    9.42185000   18.06753000     -0.014433   -1.63752200   -0.20890300
Se    0.37869000   16.51547000    8.98135000      0.336397   -0.69994300   -0.71150600
Se    0.96553000   11.77741000   18.04278000     -0.254727    1.25355400   -0.18496200
Se    2.42985000   20.04785000    5.87597000      0.447830   -0.26314800    0.05256400
Se   23.21006000   19.00447000   16.55280000     -0.141634    0.38721200   -0.32612300
Se    5.55841000   22.77315000    3.91471000      0.292009    0.39559100   -0.17879300
Se    6.40063000    1.47917000   17.04043000     -0.370089   -0.02807500    0.32048800
Se   10.44314000    7.12745000    5.93460000      0.188045   -0.99020600   -0.90061100
Se    6.12538000    8.17230000   15.46774000      0.659612   -0.28679400    0.55634700
Se    6.93956000   13.72764000    8.40830000      0.992936   -0.14134500   -0.80081100
Se    8.29895000   19.26790000   12.63042000     -0.040493    0.22113600   -0.16186300
Se    7.69040000   16.20252000    4.07535000     -0.220829   -0.30265200   -0.99338000
Se    9.36178000   16.88167000   15.27386000      0.184211   -0.03223900   -0.20377100
Se   15.22014000   21.50389000    5.54966000     -0.566514   -0.16133800   -0.73103500
Se   14.49411000   22.83783000   16.20318000      0.259906    1.13213800   -0.60858900
Se   13.15404000    8.68195000    5.10371000      0.906280    0.73469800   -0.57742800
Se   10.23353000    7.92985000   13.24778000     -0.490630    0.22231600    0.18702600
Se   14.29101000   12.28518000    4.70982000     -0.248726    0.04190800    0.62241800
Se   15.22539000   15.26148000   14.74002000     -1.096326   -0.01393500   -1.19760700
Se   12.25452000   18.75269000    4.06599000     -0.179541   -0.23260600    0.23621800
Se   16.06094000   19.52808000   18.77695000     -0.637569    0.45832300   -0.15616900
Se   17.57972000    1.92841000    4.48647000     -0.033329    0.01964500   -0.17531900
Se   18.99463000    0.89539000   18.63236000     -0.682820    0.85327000   -0.13607800
Se   19.98996000    7.44090000    6.15511000     -0.474658    1.44875800   -1.14031300
Se   19.58056000    6.76034000   15.88581000      0.685920   -0.12789900    0.85773300
Se   20.02806000   12.02626000    4.81367000      0.836897    0.18436400   -0.52723000
Se   17.18003000   13.45534000   12.81335000     -0.044746   -0.25109900   -0.00363700
Se   19.16190000   18.37867000    4.71804000      0.356458   -0.23717200    0.44026400
Se   20.96321000   20.52815000   14.02089000      0.463928    0.35240400    0.92267900
Se    5.20265000    6.98167000    6.01578000      1.162347   -0.06507100    0.62249300
Se    2.71395000    2.20757000   16.18412000     -0.221227    0.07731400   -0.60958500
Se    3.22809000    9.78688000    3.06467000     -0.466224    0.05703800    0.49330800
Se    4.49356000   11.14857000   14.45695000     -0.181349   -1.48575500   -1.47789500
Se    4.81154000   14.39841000    4.98344000      0.242564    0.27380400    0.05073900
Se    2.15225000   16.23320000   17.94852000      0.255933   -0.00409000    0.80658500
Se    1.27936000   22.85338000    5.60478000      0.066709    0.06631400    0.07960100
Se    2.98520000   19.17189000   13.36491000     -0.158277    0.90247700   -0.44281300
Se   12.37687000    0.81055000    6.04171000     -0.178235    0.43425900   -0.20165800
Se    8.41502000    4.66982000   16.07883000     -0.362139    1.79121200   -0.50667400
Se   11.75655000   11.50906000    6.83829000      0.451975    0.98993300    0.22521100
Se   10.91096000   12.07524000   16.24079000      0.471088    0.85852000    1.38664600
Se    9.96382000   15.92086000    9.36216000     -0.072199    0.99862800    0.40317400
Se   11.66106000   19.90601000   18.94989000     -0.809306   -0.07769600    0.62292800
Se    9.96245000   22.47275000    3.43864000     -0.110896    0.70669600    0.18079400
Se    8.26979000   20.31243000   18.47247000      0.085923    0.23860700    0.20135200
Se   14.50728000    4.79008000    4.93902000     -0.252445    0.44680400   -0.39119800
Se   14.28645000    5.71917000   18.60816000     -0.692268    0.50011800    0.17473100
Se   16.88228000   10.49177000    6.81810000      0.240437   -0.92579300   -0.36554400
Se   17.57734000    6.97740000   13.40286000     -0.955716   -1.48741100    1.60173600
Se   17.33257000   14.25201000    5.59780000      0.518956    0.14599300    0.04559700
Se   13.17681000   18.28091000   15.46530000     -0.802856    0.33649700   -0.11903600
Se   15.71024000   23.57669000    3.98058000     -0.069355   -0.91511300    0.21090700
Se   17.45436000    3.81083000   14.68887000      0.043731    0.62319200    0.09523200
Se   22.23270000    4.36229000    6.78072000     -0.579372    0.67112700    0.58656800
Se   22.57495000    4.96564000   14.42766000      0.534306   -0.08812200   -0.72136600
Se   17.41190000   10.79422000   10.18144000     -0.932339   -0.34836100   -0.14766400
Se   21.50951000   13.92575000   15.53155000      0.397272   -0.40670300    0.46574100
Se   19.09405000   15.59842000    7.84399000     -0.760349    0.55646000    0.05319000
Se   22.40931000   16.05506000   15.30899000     -0.289689    0.75073300    0.67395700
Se   21.59290000   23.28116000    8.32534000     -1.298873   -0.00204000    0.03533600
Se   22.53663000   23.57843000   19.39804000     -0.433343   -0.46731200   -0.23988800
Se    4.49444000    3.02361000    7.23534000      0.067626    0.63331900   -0.13212600
Se    5.34384000    0.01343000   15.44527000     -0.241180   -0.03649200   -0.20377800
Se    4.02571000    4.61403000    3.35505000     -0.428979    0.33600400    0.40560500
Se    3.92400000    8.57576000   11.12055000      0.602912   -0.65332000    0.25631200
Se    1.29421000   11.11809000    2.05064000      0.073432   -0.31206600    1.01954900
Se    4.64301000   14.31855000   14.41914000     -0.321925    0.71724700    0.27024100
Se    4.25974000   17.02404000    1.51000000      0.095064    0.84497400    0.49289200
Se    3.85177000   16.76808000   13.30042000     -0.019621    0.02718400    0.15568200
Se    8.87910000    0.73821000    2.59363000      0.392054    0.06679600   -0.10265100
Se   11.02832000    1.61519000   14.36349000     -0.779203   -0.19926200   -0.06809800
Se   10.38548000   10.10094000    2.72280000     -0.203206   -0.75230700   -0.83596600
Se    8.71871000    8.88804000   16.77718000      1.023726   -0.77876500    0.67292600
Se    9.31483000   13.34169000    4.66611000     -0.324661   -0.59713500   -0.38237000
Se   12.06328000   10.77196000   12.71058000      0.121907    0.34766900    1.17920900
Se    9.37070000   19.52528000    2.43295000      1.930872   -0.26338500   -0.68518200
Se    8.26955000   22.20854000   15.05379000      0.486559   -0.21813500    0.01355200
Se   18.04591000    5.01711000    8.49078000     -0.298701   -0.77048200    0.23116800
Se   14.68626000    1.56092000   16.62008000     -0.098997   -0.91654800   -0.50802000
Se   16.62841000    7.17767000    4.16264000     -0.299883    0.19887100   -0.32059300
Se   13.05973000    7.93573000   15.08625000      0.593547   -0.09115000    0.20328700
Se   17.04774000   12.05316000    1.57131000      0.015847    0.08720200    0.74164600
Se   17.75440000   17.85619000   15.19060000      0.106654    1.14373600   -0.21589800
Se   15.46798000   16.33967000    3.72993000     -0.447291    0.78540700    0.75951000
Se   16.87282000   20.44613000   14.30002000      0.003683   -0.30005800    0.13516600
Se   23.32463000    1.89661000    4.85418000     -0.677065   -0.89615300   -0.17587600
Se   21.98796000    1.06623000   12.08344000      0.218895    0.33720100   -0.06922100
Se    0.32216000    8.12135000    5.26866000     -0.979176   -0.88166100   -1.04426300
Se   21.68622000    7.11548000   13.67813000     -0.206590    0.41704500   -0.42092200
Se    2.17535000   15.61014000    4.37606000     -0.889540    0.75660600   -0.50432500
Se    0.89008000   12.32421000   14.90809000      0.836461    0.49250800   -0.35506700
Se   22.69904000   19.92736000    5.62178000      0.235247    0.50534300   -0.50004500
Se   20.89596000   21.22762000   10.40261000      0.640465   -0.21315100   -0.07755900
Se    2.62696000    4.46392000    6.97562000     -0.777153   -0.21640400   -0.78457500
Se    2.16543000    3.15387000   12.62282000     -0.163204    0.12056100    0.01039300
Se   22.43769000   11.43061000    5.20998000     -1.056097   -0.24981800   -0.30959100
Se    1.26200000    9.12323000   14.77060000     -0.490040   -0.28917800   -1.02437000
Se    1.89545000   14.99122000    1.69436000     -0.382742   -0.27878600   -0.14399100
Se    0.98916000   16.55360000   14.59353000      0.405800   -0.57484000   -0.87245100
Se    4.00743000   20.73137000    1.95635000     -0.636615   -0.25026000   -0.65291100
Se    5.13261000   17.67292000   16.79788000     -0.077321   -0.29660600    0.27206300
Se   10.94046000    3.08556000    5.22525000     -0.289412   -0.05406600    0.33357000
Se    7.92402000    2.50423000   13.15591000      2.811791   -1.39440400    0.09948000
Se    6.78656000    9.35470000    3.89649000      0.367400    0.01436800   -0.31201500
Se    7.99167000   10.97997000   13.39307000     -0.012691   -0.85222900    0.61686900
Se    7.24218000   14.36750000    2.15177000      0.374543    0.99358200   -0.23840100
Se    9.63844000   15.14880000   13.59358000      0.354539    0.01800900    0.13921200
Se    7.16048000   21.91286000    8.82261000      0.651306   -0.23639500   -0.28513200
Se    5.72054000   19.85854000   15.88885000      0.939896    0.63859300   -0.69459200
Se   13.96213000    0.89274000    2.54233000      0.436060    1.06617400    0.79250900
Se   10.37662000    5.51078000   13.50541000     -0.022391    0.38530300   -0.65061800
Se   13.18691000   10.22157000    0.56190000      0.090121   -1.85179800    0.83664200
Se   15.66013000   10.20620000   14.04595000     -0.310141   -0.02121900    0.51158600
Se   10.13194000   16.34053000    6.07037000     -0.197110    0.68561700   -0.13211700
Se   14.10631000   16.91553000   11.22696000     -0.156869    0.43539300    0.08190400
Se   14.71106000   21.46325000    1.04492000     -0.627031   -0.89425200    1.69692100
Se   15.83319000   23.19901000   13.92537000     -0.502223   -0.37927500    0.55252600
Se   17.84722000    6.42128000   18.91832000      0.018095   -0.83659900   -0.16938200
Se   14.76639000    5.80071000    9.50199000     -0.321831   -0.73890700    0.18543200
Se   19.90946000    8.09257000    2.67775000     -0.636232    1.20904300   -0.66209600
Se    1.66709000   12.38040000   12.38463000     -1.790861   -0.20785100    0.87535900
Se   20.52063000   16.41087000    4.09619000     -1.212417    0.25752300   -0.53641400
Se   18.37502000   16.40948000   13.38520000      0.303895    0.07956500    0.29075600
Se   19.43621000   22.06780000    4.26766000     -0.100755    0.65581600   -0.24567900
Se   18.79026000    0.59789000   14.53628000      0.308884   -0.61824500   -0.08785400
