384
23.69824000 23.69824000 19.89960000
Ge    4.97925000    6.57624000   12.77835000     -0.441043    0.78866800    0.29808300
Ge    6.57798000    5.16006000    3.22628000     -0.366086    0.14270500    0.31314400
Ge    1.82715000   13.15374000    6.94784000     -0.107212   -0.25976800   -0.63550400
Ge    8.68508000   14.67121000   16.02423000     -0.017440   -0.76329100    0.30224600
Ge    5.24836000   14.95869000    9.75268000     -0.561181    0.48557400    0.64034500
Ge    9.31932000   18.57203000   19.88698000      0.792496   -0.46639500   -0.27323200
Ge    8.24098000   22.74226000   10.86263000     -0.277363   -1.00782200    1.59968700
Ge    5.77220000    0.94017000    0.33892000      0.480547    0.41606600    0.15885700
Ge    9.20754000    5.39943000   11.04924000      0.741827    1.58640500   -0.23006600
Ge   11.24099000    6.08437000   19.66019000      0.321235   -0.31443800   -0.47703400
Ge   10.46263000    8.73355000   10.47205000      0.493709   -0.08527000   -0.05330200
Ge   13.84306000   12.18317000   19.52110000     -0.314457    1.83825700   -0.79488900
Ge   11.25401000   18.22089000    8.84051000      1.075540   -1.61891200   -0.25901400
Ge   12.91748000   15.96010000    0.60234000     -1.087973   -0.25315600    0.35409100
Ge   11.30064000   23.23055000    9.21310000      0.184770   -0.38024600    0.10111700
Ge   16.22557000   22.72224000   19.55661000      0.413697    0.11108200   -1.39340500
Ge   18.50964000    5.39906000   11.69763000      0.215796   -0.19450300    0.26118500
Ge   20.00019000    8.96417000   17.09831000     -0.511272    0.11238000   -0.01838600
Ge   19.65414000   11.38384000    9.92347000      1.422063    1.05887800    0.05961900
Ge   18.14323000   11.54842000   18.02666000     -0.513066   -0.15357900   -0.50802300
Ge   14.89089000   19.71175000    9.11057000     -0.391283    0.87233200   -1.05989700
Ge   18.10995000   15.46787000   19.37284000      1.183504    0.09820400   -0.01747400
Ge   19.56052000    1.98592000   12.69275000      0.362214   -0.50528600   -0.36693800
Ge   20.47926000    4.42574000    1.16545000     -0.741310   -0.28442100    0.41231800
Ge   23.23721000    6.12788000    8.84358000     -0.034111    0.22188000   -0.55135800
Ge    1.99308000    3.31950000    4.37488000      1.346665    0.12633000    0.71904100
Ge    1.48529000    9.96978000    9.77775000      0.613493   -0.16847300   -0.29856200
Ge    0.18238000    9.71699000    0.02848000      0.797162    0.09118300    0.85869700
Ge   21.22466000   15.53796000    8.94512000      0.935438    0.42735700    0.68591000
Ge    1.05501000   13.97968000   19.42032000     -0.090989    0.65554700    0.03619900
Ge   18.86846000    1.69128000    9.83222000      0.162403   -0.47145600   -0.08545200
Ge    0.66721000   21.08153000    0.00850000     -0.298533    0.25426400    0.56120800
Ge    4.93318000    7.85558000    8.51649000     -0.253028    0.06564900   -0.57638900
Ge    1.59436000    6.73060000   19.08144000     -0.030894    0.26861300    0.41078600
Ge    1.83387000    9.87042000    5.70560000      1.236059    1.00042200    0.18890500
Ge    3.67377000   12.56324000   16.32371000      0.153279    0.15733100   -0.06255600
Ge    5.80774000   17.69809000    3.65934000     -0.275834   -0.28552900   -0.03966200
Ge    0.37632000   17.82339000   18.28175000     -0.620646   -0.57643200    2.21679200
Ge    4.72784000   20.54185000    8.70642000     -0.412614   -0.50129200    0.63596700
Ge    4.29840000   22.76414000   18.05324000     -0.296369    0.70240800    0.13446500
Ge    9.60920000    2.66154000    7.43694000      0.247679   -0.24343100   -0.30472700
Ge    7.06585000    8.52215000   18.91212000     -0.689660    0.25448000   -1.52172200
Ge    5.93832000   12.70186000    6.46807000     -1.062853   -0.81224800    0.11136100
Ge    8.22207000    8.79890000    1.93945000      0.177990    1.30089300    0.82517000
Ge    7.94632000   18.47845000    7.31439000     -0.860114   -1.06366300   -1.07879700
Ge    4.16978000   19.33965000   19.08911000      0.309708    0.57979200    0.30092800
Ge   10.80953000   22.47219000    6.16704000      1.168551   -0.27504300   -0.80587400
Ge   10.33239000    2.17877000   17.66462000     -0.029921   -0.71585900    0.13570300
Ge   13.06801000    6.46104000    5.76226000     -0.364009    0.29455100    0.94535200
Ge   13.69164000    8.16028000   18.52828000      0.596671    0.24088800    0.99931900
Ge   15.91538000   12.67323000    6.41515000     -1.034849   -1.09681600    1.74207300
Ge   16.72346000   15.86139000   16.51782000      0.705941   -0.63940000    0.43417300
Ge   12.67349000   16.25410000    5.16508000     -0.476284    0.61255400   -0.46691000
Ge   15.24857000   18.44204000   16.61463000      0.667832    0.34556100    0.55845700
Ge   15.33567000    0.46115000   10.03272000     -0.994894   -0.55713000   -0.32415000
Ge   16.43325000    3.92422000   18.45155000      0.646919    0.24009600   -0.54437500
Ge   20.24299000    5.81410000    7.61887000      0.773433   -1.48519000    1.07382100
Ge   21.84084000    5.64477000   16.70017000     -1.136921   -0.18421400   -0.69702200
Ge   19.59145000    9.26015000    7.96549000      0.124128   -0.94518000    0.06320700
Ge   21.80001000   13.20570000   18.33090000      0.420285    0.07444300   -0.44162200
Ge   19.67622000   17.98947000    7.17240000     -0.914044   -0.37566100   -0.21900400
Ge   20.55860000   19.00731000   16.08411000     -0.056636    0.22061700    0.89341300
Ge   19.71000000    0.85365000    5.30829000      0.052596   -0.79371300    0.33331200
Ge   20.35087000   20.94263000    0.92774000     -0.511442    0.18122500   -0.05336200
Ge    5.55532000    3.43630000   10.26917000      0.949983   -0.64051600   -0.31884400
Ge    4.41513000    3.55731000   17.03667000      0.316801   -0.34065000    0.51091400
Ge    2.86274000    6.70551000    5.26713000      0.502955   -1.18183500    0.11627600
Ge    2.82626000    9.77204000   12.79353000     -0.194856    0.74474900    1.82709400
Ge    2.51910000   17.47906000    5.87329000      0.553635    0.50186500    1.38971200
Ge    2.02029000   14.74333000   15.99104000     -0.219989   -0.38270800   -1.12598800
Ge   23.45534000   19.99007000    9.65161000     -0.856092   -0.56387800    0.09295700
Ge    3.29169000   21.57496000   14.95317000      0.363442   -0.22105400   -0.27514400
Ge   10.22223000    3.66323000    2.14381000     -0.229206   -0.59089800    0.11845500
Ge    8.48957000    2.42560000   15.80458000      0.549576   -2.94418300   -0.53785500
Ge    9.27225000   10.82638000    4.98301000     -0.305732   -0.41350500    0.28722800
Ge    7.37752000   10.38849000   15.65495000     -1.275816    1.45246200   -1.16079200
Ge    9.10099000   14.36455000    6.85305000      0.196993   -0.50497700    0.60755100
Ge   14.72752000   11.45095000   16.23102000      0.810628    0.03373600   -0.25499800
Ge    7.53427000   21.67007000    4.80182000      0.148347    0.04198400   -0.30859200
Ge    8.42319000   19.65814000   15.62480000     -0.545644    0.67440800    0.22307400
Ge   14.59364000    2.11608000    6.84023000     -0.174327   -0.48111800   -0.20333800
Ge   12.58217000    2.58150000   15.82219000      1.155175    0.36567900   -0.15578000
Ge   15.75860000    9.62559000    4.74817000     -1.126257   -0.66560600   -0.56003600
Ge   15.79281000    7.89345000   15.65252000     -0.354958    0.40581700   -0.42083800
Ge   15.76361000   14.03225000    3.75283000      0.176318   -1.07241400   -1.36335200
Ge   12.80282000   15.77383000   15.56367000      0.924570    0.52484000   -0.62676700
Ge   13.78142000   19.18042000    0.41078000      0.474591    0.10251300   -0.45496200
Ge    9.99441000   21.68838000    0.11596000      0.376430   -0.40538600   -0.57970300
Ge   23.31251000    4.13258000    4.03846000     -0.403987    1.04834200   -0.64389000
Ge   22.79859000    2.58040000   15.77264000     -0.530114   -0.50424500    0.12750800
Ge   22.80166000    9.14230000    7.06149000     -1.113042    0.82605600    0.42019500
Ge   20.35228000    9.83161000   13.30522000      0.628963    0.30699400    0.79834700
Ge   22.84131000   16.32199000    4.75028000      0.513417   -0.09512900    0.10646200
Ge   19.46402000   13.83348000   13.83603000      0.227641    0.18404700   -0.42238200
Ge   20.33848000   20.80678000    6.11355000      0.136565   -0.45297300   -0.03587900
Ge   20.73021000   23.34979000   17.75393000      1.192367   -0.70940200   -0.29563300
Ge    6.05360000    4.57164000    5.80238000      0.353880    0.08456200    0.61481900
Ge    4.06795000    1.55738000   13.38729000     -0.299456    0.53851700    1.22067900
Ge    5.24718000   11.41716000    3.44993000     -0.224582   -0.85644500    2.19256400
Ge    7.55914000    8.50357000   12.83890000      0.609062    0.63414000   -0.24261000
Ge    5.31918000   15.16232000    0.45847000      0.485777   -0.23993500    0.16939800
Ge    3.97615000   12.76334000   12.73095000      0.910950    0.77937600    2.08862300
Ge    4.64388000   22.37704000    6.07282000     -0.773178    0.36723400    0.54495200
Ge    6.26261000   21.08725000   13.35021000      0.015283   -0.20772700   -0.33126900
Ge   14.98637000    6.23162000    2.35640000      0.378338   -0.34708300    0.61000600
Ge   13.37510000    0.07628000   13.28916000     -0.079463    0.15686100   -0.29030500
Ge   10.50823000   10.09275000   19.68662000      0.969401    0.36674600    0.31567000
Ge   13.77969000    8.96157000   12.76034000      0.804123    0.38314900    0.10094600
Ge   10.77725000   13.68463000    2.56122000      0.078789   -0.05346000   -0.91117300
Ge    8.10364000   17.27071000   10.74820000      0.167208   -0.25350000   -0.35733100
Ge   12.67920000   22.84786000    1.39852000     -0.624554    0.24674000    0.00030900
Ge   10.40784000   22.45069000   13.95355000      0.186724    0.27902800   -0.50001400
Ge    0.34016000    1.73253000   18.94034000      0.805663    1.18375600   -0.54903200
Ge   13.05134000    6.45480000   13.10286000     -0.773144   -0.96211700   -0.22786700
Ge   17.47185000    8.57231000   19.86748000      0.672843    0.26560000   -0.35884300
Ge   12.78046000    6.78473000    8.32866000     -0.889571   -2.47106000   -0.81187800
Ge   20.44091000   13.34697000    2.70363000      1.399231   -0.15469200    0.34114100
Ge   16.21849000   16.94804000    7.84795000      0.007634   -0.64672200    0.26724600
Ge   17.05850000   21.03701000    2.80282000     -0.058843    0.23424200    0.50881700
Ge   18.85413000   21.53782000   13.24261000     -0.804108    0.22652900   -0.44091300
Ge    0.89191000    1.49322000    2.44580000     -0.531562    0.05305300    0.09933300
Ge   23.12723000    2.41734000   10.35965000     -1.548898    0.37806500    0.24937100
Ge   22.55209000    9.97938000    3.07320000      0.416460    0.31140300   -0.26968600
Ge   22.98433000    9.09956000   13.23904000      0.007185   -0.17477500    0.13275600
Ge    2.50167000   13.27416000    3.88865000     -0.102763   -0.86977300   -0.10825800
Ge    0.15185000   15.99164000   11.43538000      0.307230    0.87826900    0.55600200
Ge    0.35700000   21.25707000    3.89607000     -0.048561   -0.21612000    0.09263300
Ge   20.77447000   18.33679000   12.77458000      0.581512   -0.83755000   -0.65911800
Se    2.56426000    0.57057000   19.58704000      0.446227   -0.18798200    0.38075500
Se    1.53652000    1.36409000    9.77876000      0.142086   -0.11707000   -0.05477600
Se    0.70528000    7.48702000    1.47319000      0.081126    0.34320400   -1.26805200
Se   23.45793000    8.61116000   10.89738000      0.116646    0.02141000   -0.45745600
Se   21.98393000   11.90478000    1.10903000      0.208207   -0.60821400    0.70197900
Se    1.32903000   14.20148000    9.11255000      0.063392    0.67173100    0.56616000
Se    2.19820000   19.56879000    3.15676000      0.030492    1.05205200   -0.13021700
Se   23.33011000   18.79801000   11.94201000     -0.226042   -0.87720800   -0.12695000
Se    7.08645000    3.22985000    1.93593000      0.450732   -0.44340700    0.07011000
Se    5.98790000    3.40712000   13.38224000     -2.047098    1.04949000   -0.15897100
Se    9.66774000    5.17035000    4.42254000     -0.080596    0.14039100    0.41096700
Se    7.98776000    9.09203000   10.19290000     -0.579131   -0.73389100    0.08769300
Se    8.02421000   10.52698000    0.05094000      0.348663    0.49494200    0.50770300
Se    6.95720000   15.33604000   11.54319000     -0.007412   -0.51032200    0.47508100
Se    7.24598000   19.73968000    2.93300000     -1.357417    0.68650400   -0.15920200
Se    9.86951000   20.51061000   11.22203000     -0.689129    0.41380100    0.82499300
Se   13.22334000    0.97974000   19.72070000     -0.496344   -0.82090600   -0.38987300
Se   12.67911000    3.00407000   12.10059000      0.507293    0.16382300    0.46698500
Se   11.45859000    8.50754000   17.76148000     -0.844581   -0.02446800    0.19264900
Se   10.46863000    9.77320000    7.25598000     -0.901225   -0.93081000    0.01812100
Se   13.40825000   13.72695000    1.69397000     -0.052349   -0.74731000   -0.59638800
Se   13.01937000    8.78792000    9.22730000     -0.315987    2.40345200    0.80347400
Se   15.06201000   16.64337000    1.46546000      1.009009    0.57879900   -0.22337100
Se   12.30112000   18.46868000   11.01698000      0.570825    0.44137000    0.67679100
Se   18.68796000    3.83602000    3.46096000      0.342231    0.24069200   -0.12818800
Se   13.86957000    4.20477000   13.99644000     -0.541885   -1.24590800   -0.46676700
Se   15.60518000    4.89276000   16.11837000      0.148723    0.23143900    0.83579100
Se   20.00574000    3.99928000   14.07307000      0.240524    0.88416500   -0.18624100
Se   20.13423000    9.27017000    0.10025000     -1.648107    0.75790500    1.10284500
Se   17.10404000   19.18979000    7.49715000     -0.080758    0.82023100   -0.11339800
Se   20.26655000   17.17936000    0.27640000     -0.836133   -0.25431100   -0.82178200
Se   19.45016000   19.40754000   11.04589000     -0.190129    0.57655000   -0.69726700
Se    2.84142000    0.89082000    5.03498000      0.295533    0.14816500   -0.33210600
Se    2.65519000    5.45896000   11.98816000     -0.713151   -0.10744300    1.76002500
Se    5.73183000   11.50194000    1.22865000      0.616436    0.32040700   -1.98173400
Se    4.67814000   12.46468000   10.66115000      0.814369    0.02178000   -1.75025500
Se    3.94186000   13.20016000    1.48347000     -0.737656    0.50971600   -0.55252700
Se    3.19060000   16.34755000   11.13974000     -0.255139   -0.29708700   -0.05031100
Se    5.89927000   21.90986000   19.76114000     -0.349157   -0.51997000    0.02725200
Se    4.50056000   19.88333000   11.66169000      0.195084    0.08917900    0.30200000
Se   12.22048000    6.57357000    2.04187000      0.259965   -0.82758100    0.24141500
Se    8.48902000    3.27250000   10.62843000     -0.604452   -1.31166000   -0.07978500
Se   10.95351000   12.53826000   18.84860000     -0.327057   -0.68777500   -1.01797000
Se   10.96650000   11.22728000   10.81362000     -0.907330   -0.13034100   -1.35195700
Se   11.26254000   16.08925000    2.84446000      0.438599    0.12293400   -0.18769800
Se   12.08410000   14.71672000   13.46163000     -0.329292    0.09528800   -0.20784800
Se   11.50024000   23.61755000   17.78817000      0.152334    0.90920500    0.78225100
Se   10.10687000    0.49058000   11.43766000     -0.033774   -0.26438300   -0.00393500
Se   12.07636000    4.08748000   17.65863000     -0.234727   -0.57826000    0.05034100
Se   17.59778000    8.10220000    9.58172000      0.173234   -0.58052300   -0.43671600
Se   16.84863000    9.06420000    2.27164000     -0.356539    0.06383800    0.71455500
Se   17.68001000   13.19133000   10.56734000      0.787336    0.37659200   -0.14092300
Se   18.30446000   14.42501000    2.34397000     -0.265356    0.01125100   -0.14028400
Se   14.15509000   15.21878000    7.95978000      0.117556    0.30187600    0.09103100
Se   18.08384000   22.69171000    1.28356000      0.619756   -0.04356100   -0.32231400
Se   17.11849000    0.12582000   11.57081000     -0.169314   -0.17793600   -0.38089200
Se   23.44580000    3.57876000    1.39861000     -0.008221   -0.38692000    0.32330700
Se   22.00912000    4.73912000   10.37732000      0.492281   -0.89675200    0.98610800
Se   21.37005000    6.49962000    2.32012000      1.179347   -1.34501000    0.15733200
Se   21.08648000   11.95636000   12.26250000     -0.987875    0.04756800   -0.15369600
Se   22.84826000   14.41901000    3.07523000     -0.791210    0.32605300    0.35922900
Se   21.34575000   15.85759000   11.67242000     -0.677160   -0.44265200   -0.63399900
Se   22.95847000   22.49231000    2.16321000      0.618447   -0.29379300   -0.36163000
Se   21.69198000   23.60707000   15.51158000      0.205021    0.88118800    0.25364900
Se    3.70882000    5.04183000   10.05472000      0.400805    0.24955400   -2.25549200
Se    5.18441000    6.61366000   18.30194000     -0.760064    0.01245700   -0.47117200
Se    3.81774000   11.82248000    7.55819000      0.640881   -0.14772200    0.01944300
Se    3.84295000    7.70813000   14.98525000     -0.232783   -0.35890400   -0.75931500
Se    6.09449000   20.23319000    6.46150000     -0.067746   -0.55631000   -0.14727500
Se   22.66860000   15.31134000   19.39973000     -0.330748    0.09950100   -0.28765400
Se    0.66624000   21.58946000   11.22091000      0.353965    0.77651500    0.27177900
Se    2.71279000   20.93220000   17.60183000     -0.404755   -0.64030700    0.35395300
Se    7.64590000    4.44897000    8.04395000     -0.251011   -0.51235500   -0.68995900
Se    5.70185000    5.06559000    0.17689000      0.108749   -1.26001300    0.37158100
Se    7.51557000   10.77309000    6.78611000     -0.257050    0.51793400   -0.11312100
Se    3.91243000    9.81350000   19.55947000     -0.044019   -0.18891800    0.05600100
Se    6.32870000   17.81172000    9.12966000     -0.043114    0.43021100    0.18030300
Se    6.37629000   16.22085000   18.27155000      0.402579   -0.43895200   -0.06824600
Se    9.95898000   19.73126000    7.61854000      0.412273    1.22403000    0.17723300
Se    8.96490000    1.94390000   19.61309000     -0.012438    0.41418700    0.81276500
Se   14.11627000    2.69061000    9.42163000     -0.114108   -0.42516800   -0.09276900
Se    8.76441000    4.76829000   18.34647000     -0.137116    0.01192300    0.82187900
Se   10.47776000    5.82170000    8.70789000      0.133713    0.34592300    0.23368600
Se   17.03887000   13.11121000   16.32675000     -0.098275   -0.69318400   -0.08881900
Se   13.52858000   18.33190000    7.39634000     -0.766622   -0.01003100    0.42788700
Se   14.94826000   16.48272000   18.11888000     -0.365995   -0.43921600    0.32166300
Se   15.56010000   23.56949000    7.60103000      0.471079    0.00681300    0.54901100
Se   18.24600000    2.52474000   16.80705000     -0.387697   -0.82648800    0.85205000
Se   16.86090000    3.55074000   12.45965000     -0.452901    0.00576800   -1.17516500
Se   21.32666000    3.61771000   17.80880000      0.652365   -0.24424900    0.02615300
Se   18.11312000    8.75858000   12.11278000      0.722588    1.16291300    0.22688300
Se   21.01522000   10.71077000   15.74426000     -0.347615   -0.20348300   -0.73063100
Se   16.10603000   17.96783000   10.19060000      0.210356   -1.31174600    0.98723900
Se   19.52388000   13.04614000   19.36150000      0.020530    1.04934900   -0.03897700
Se   19.01631000   23.42228000    8.09700000      0.492953    0.06589500   -0.50963300
Se   18.97358000   18.89366000    1.78241000      0.287700    0.12305600   -0.55722300
Se    5.54027000   23.58394000    8.84403000     -0.321539   -0.04619400   -0.31383400
Se    4.32847000    3.00259000   19.85237000     -1.026462    0.10058600   -0.92536500
Se    6.88014000    6.69522000   10.19481000      0.591451    0.49969100    0.18184400
Se    4.04733000    7.40679000    0.43218000      0.226032    0.70003400   -0.43981800
Se    4.98771000   16.52169000    6.24001000     -0.280677    0.14353500   -0.21447000
Se    6.39703000   12.37081000   16.71694000      0.531709   -0.50077400    0.33549200
Se    2.58849000   19.09194000    8.28296000      0.174960    0.14364000   -0.04835100
Se   23.60021000   18.69673000    0.71669000      0.330065    0.28363800   -1.09370000
Se    9.05804000   23.59573000    7.23066000     -1.095255    1.44681600    0.17969600
Se   12.79493000    4.08437000    1.70347000     -0.748198    1.06195200   -0.25555400
Se   11.65326000    1.97593000    9.29729000     -0.062191    1.13425000    0.06839800
Se    7.81404000    6.81436000    0.56080000      1.545418   -0.07615400    0.94336000
Se   10.74715000   13.34804000    8.35303000      0.397814   -0.17945400   -0.37415000
Se    8.96254000   14.42790000    0.54428000      0.081983   -0.33975900    0.39170600
Se   13.14259000   22.73641000   10.94886000      1.435928    0.16469200   -0.12083500
Se   13.27558000   13.72719000   16.85530000     -0.403180   -0.61313800    0.34268100
Se   16.90758000    2.61103000    8.53154000      0.642770    0.66221200   -0.34522700
Se   17.81477000    5.03792000    1.27604000      0.197549   -0.33578200    0.01489400
Se   15.62117000    7.56986000    8.28846000      0.145597    0.69740600   -0.56152600
Se   15.78139000    9.45217000   18.05132000     -0.135895    0.28718900   -0.64070400
Se   15.27998000   13.37650000    8.81550000     -0.581521   -0.32143100   -1.21957000
Se   16.38510000   12.97396000   19.38703000      0.041381   -0.60576700    0.29461800
Se   14.47922000   19.24969000    4.21729000      0.489051    0.81678100    0.26179800
Se   20.25314000   21.00198000   18.04577000     -0.318530   -0.38958100    0.18720600
Se   21.36998000    2.07012000    8.45989000      0.834211   -0.43070300    0.02837500
Se    0.37639000    0.55047000   16.29041000      0.137339   -0.25444100   -0.06949400
Se   20.89716000    7.31514000    9.53562000     -0.015854   -0.20244700   -0.45768800
Se   23.46004000    7.33339000   16.94030000      1.138465   -0.02729000   -0.25324300
Se    0.17430000   11.36963000    8.02986000      0.232016   -0.29196200   -0.15482400
Se   22.02052000    8.65603000   18.55536000     -0.441148   -1.29009300   -0.30305800
Se   22.03135000   18.01802000    7.58431000     -0.201642   -0.75238400    0.63244500
Se   20.05564000   16.52887000   17.65459000     -0.333986    0.20321000    1.27149200
Se    0.87930000   22.87351000    9.19366000      0.316811    0.36532200   -0.05635100
Se    3.06328000   23.14533000   13.00118000     -0.275989   -0.32822900   -0.55388700
Se    2.48485000    7.83162000    7.87761000     -0.228680    1.01071100    0.00307000
Se    2.00635000    9.41979000   18.05670000      0.035067   -1.44823900    0.05108100
Se    0.36936000   16.49210000    8.96294000      0.331957   -0.69245900   -0.55176100
Se    0.98307000   11.81004000   18.05874000     -0.253371    1.10298500   -0.19083500
Se    2.43402000   19.99771000    5.84365000      0.470856   -0.50441100    0.09001600
Se   23.19808000   18.97019000   16.60142000     -0.434573    1.05578700   -1.21409200
Se    5.51469000   22.79938000    3.89133000      0.654221    0.25346000   -0.21687600
Se    6.40473000    1.47963000   17.05054000     -0.442325   -0.13219900    0.21739000
Se   10.42469000    7.08388000    5.87266000      0.391965   -0.92641200   -0.72918800
Se    6.12169000    8.13133000   15.49536000      0.658688   -0.00801500    0.38965200
Se    6.92957000   13.76188000    8.34785000      1.170209    0.24768500   -0.20547300
Se    8.25852000   19.31173000   12.63243000      0.146767    0.11451500   -0.19935800
Se    7.70062000   16.23401000    4.04761000      0.147527   -0.58492700   -0.85885600
Se    9.32377000   16.88230000   15.27824000      0.271956    0.16371100   -0.35040000
Se   15.21593000   21.51946000    5.59075000     -0.458306   -0.13461100   -0.83220500
Se   14.46767000   22.79059000   16.18319000      0.340385    1.15104200   -0.65083000
Se   13.12683000    8.67904000    5.07529000      1.019216    0.89190600   -0.60122900
Se   10.24489000    7.92554000   13.32185000     -0.800372    0.52088300   -0.17168300
Se   14.27736000   12.22568000    4.68775000     -0.240840    0.27095900    0.44984300
Se   15.27850000   15.26257000   14.74448000     -1.327694   -0.03911800   -1.03589200
Se   12.21776000   18.74179000    4.06754000      0.336626   -0.29602300    0.32596000
Se   16.06278000   19.50343000   18.74970000     -0.658003    0.53273200   -0.17961300
Se   17.59821000    1.88821000    4.49316000     -0.109021    0.29683700   -0.27143900
Se   18.98421000    0.87985000   18.60071000     -0.948421    1.01662200    0.23177900
Se   19.99055000    7.50846000    6.17084000     -0.555372    1.58450300   -1.71555900
Se   19.61462000    6.75460000   15.89640000      0.639624   -0.18650600    0.76487100
Se   20.01088000   12.06515000    4.73967000      0.808005   -0.16411800   -0.01479700
Se   17.16537000   13.45105000   12.80288000     -0.188868   -0.27045200    0.18480800
Se   19.10415000   18.40601000    4.67864000      0.658415   -0.42060600    0.52502800
Se   20.91731000   20.47174000   13.98130000      0.863549    0.61999800    1.17729300
Se    5.23825000    6.98158000    6.04911000      0.652396   -0.21681700    0.47766000
Se    2.68868000    2.19689000   16.19954000      0.148163    0.38784900   -0.50945400
Se    3.19164000    9.77751000    3.05028000     -0.296328    0.06713700    0.62585700
Se    4.53821000   11.14479000   14.47181000     -0.410982   -1.52002400   -1.41124700
Se    4.82513000   14.41589000    4.97149000      0.337324    0.04799800    0.15005100
Se    2.10467000   16.24972000   17.93088000      0.580391   -0.08889200    0.94323100
Se    1.27329000   22.88546000    5.55993000     -0.096435   -0.19656500    0.33447700
Se    3.00905000   19.19061000   13.42235000     -0.109714    1.01015100   -0.48793000
Se   12.40380000    0.76045000    6.07282000     -0.235339    0.51901900   -0.15225200
Se    8.40448000    4.63050000   16.07752000     -0.449548    2.95532300   -0.35622800
Se   11.79530000   11.53208000    6.80168000      0.586113    1.22495200    0.34390900
Se   10.94484000   12.13610000   16.25307000      0.469238    0.83931100    1.47375700
Se    9.95872000   15.95220000    9.33021000      0.041106    1.03077300    0.32891400
Se   11.66789000   19.87877000   18.98761000     -0.910086    0.15939000    0.35956100
Se    9.96234000   22.51617000    3.42943000      0.166773    0.09228400    0.36275300
Se    8.25053000   20.33163000   18.56624000      0.011857    0.44234400   -0.06168900
Se   14.54509000    4.82848000    4.94409000     -0.072297    0.28643800   -0.42090700
Se   14.34502000    5.73588000   18.60764000     -0.716831    0.53206700    0.11509500
Se   16.82951000   10.50205000    6.79576000      0.502345   -0.66442300    0.14671700
Se   17.54289000    7.03620000   13.47735000     -0.341420   -1.10609800    0.44745000
Se   17.27752000   14.26393000    5.59839000      1.252638    0.68342200    0.14950900
Se   13.18056000   18.29899000   15.51341000     -0.806938    0.24928600   -0.26534400
Se   15.68994000   23.60632000    3.95669000      0.007776   -1.07789800    0.38089700
Se   17.47725000    3.85508000   14.66448000      0.041950    0.34491100    0.51765000
Se   22.25896000    4.35732000    6.75258000     -0.717918    0.84771300    0.58494200
Se   22.62264000    4.93731000   14.41976000      0.304044    0.21562100   -0.41635100
Se   17.41280000   10.75749000   10.16820000     -1.496348   -0.04946600   -0.13698600
Se   21.53480000   13.91950000   15.57254000      0.214963   -0.28932200    0.28486500
Se   19.04409000   15.60026000    7.90310000     -0.805625    0.74062400   -0.08275200
Se   22.39474000   16.07474000   15.34065000     -0.142651    0.63711000    0.62235400
Se   21.57787000   23.26685000    8.32357000     -1.245120    0.07183300    0.15873200
Se   22.61830000   23.58888000   19.33098000     -1.084614   -1.25911700    0.26203900
Se    4.49942000    3.05571000    7.19777000     -0.013721    0.60875600   -0.06893200
Se    5.29907000    0.02742000   15.44202000     -0.082291   -0.01401100   -0.17793300
Se    4.04335000    4.57785000    3.37807000     -0.278409    0.42107000    0.31832600
Se    3.93795000    8.56353000   11.13356000      0.715261   -0.78463200    0.10556100
Se    1.30028000   11.10241000    2.06644000      0.020249   -0.12412300    0.97141900
Se    4.68969000   14.32361000   14.43740000     -0.505127    0.59088000   -0.02088200
Se    4.29047000   16.99317000    1.55201000      0.178605    0.74051100    0.44323300
Se    3.79670000   16.76891000   13.30627000      0.074789   -0.09176300    0.19770900
Se    8.91891000    0.70922000    2.59508000      0.023890    0.55338600   -0.39427100
Se   11.03345000    1.56757000   14.34833000     -0.721728   -0.21306700    0.08029300
Se   10.37360000   10.07938000    2.75657000     -0.367351   -0.73905300   -0.81081800
Se    8.72034000    8.92349000   16.75198000      1.061897   -1.01845900    0.96987900
Se    9.36607000   13.29657000    4.63133000     -0.426086   -0.37764800    0.20534000
Se   12.11051000   10.76981000   12.67316000      0.529215    0.37128600    2.04018300
Se    9.41670000   19.48270000    2.40284000      1.475409   -0.04894400   -0.46903600
Se    8.19571000   22.21415000   15.03750000      0.853651   -0.19856500    0.06538500
Se   18.06382000    5.00709000    8.47121000     -0.307324   -0.57865200    0.30296600
Se   14.68112000    1.51358000   16.59941000     -0.075071   -0.72413600   -0.39093100
Se   16.59744000    7.16736000    4.14562000     -0.112866    0.26623600   -0.28173800
Se   13.04241000    7.88059000   15.12897000      0.675665    0.05252100   -0.08465200
Se   17.01367000   12.06329000    1.59794000      0.016674    0.33702700    0.31575900
Se   17.76726000   17.86112000   15.17958000      0.199996    1.11043800   -0.43395500
Se   15.45785000   16.37038000    3.76917000     -0.583131    1.02419700    0.27343700
Se   16.87907000   20.42812000   14.30559000      0.166705   -0.13374700    0.02258400
Se   23.33730000    1.91514000    4.81184000     -0.765893   -1.03206600   -0.11554100
Se   21.97929000    1.08184000   12.03602000      0.170959    0.18887400    0.19758700
Se    0.30367000    8.13220000    5.26990000     -0.926669   -1.09259900   -1.28222400
Se   21.67376000    7.10996000   13.67612000     -0.018409    0.27976000   -0.30244200
Se    2.15941000   15.61930000    4.38530000     -1.035305    0.78325200   -0.62839900
Se    0.94278000   12.26850000   14.92140000      0.715924    0.69002300   -0.31005700
Se   22.72393000   20.00437000    5.63758000      0.132065    0.47769700   -0.46112700
Se   20.91039000   21.25554000   10.39600000      0.266063   -0.55401100    0.03470900
Se    2.62844000    4.50900000    6.95216000     -0.730485   -0.41833400   -0.74170900
Se    2.11895000    3.16277000   12.60176000     -0.022975    0.21549500    0.00302200
Se   22.43519000   11.40441000    5.21519000     -1.131012   -0.00201100   -0.20087200
Se    1.27929000    9.14415000   14.68316000     -0.230098   -0.49549000   -0.62749100
Se    1.87948000   14.99820000    1.68979000     -0.229646   -0.35398800   -0.15847600
Se    1.03487000   16.59128000   14.57722000      0.188054   -0.83368300   -0.64436000
Se    4.03367000   20.79813000    2.00285000     -0.807526   -0.58753000   -0.64130000
Se    5.16230000   17.63045000   16.79913000     -0.362214   -0.08231400    0.10586000
Se   10.94430000    3.11958000    5.23328000     -0.199190   -0.22828500    0.34701000
Se    7.96792000    2.48394000   13.13917000      1.853856   -0.86326800    0.34791400
Se    6.72204000    9.27247000    3.88727000      0.412498    0.03217000   -0.54524100
Se    8.02066000   11.01101000   13.35704000     -0.041085   -0.97431100    0.65403200
Se    7.19895000   14.38718000    2.11453000      0.410562    0.79119900    0.17235500
Se    9.67483000   15.14207000   13.57655000      0.165511    0.15290800    0.16736200
Se    7.17581000   21.92484000    8.83652000      0.427609    0.11077300   -0.10936300
Se    5.76830000   19.83655000   15.93024000      0.839379    0.67386800   -0.73551700
Se   13.93735000    0.89970000    2.60579000     -0.002526    0.60693700    0.36998500
Se   10.37280000    5.54535000   13.48278000     -0.065197    0.15867000   -0.63255000
Se   13.18611000   10.21989000    0.55380000     -0.044007   -2.20009400    0.92719600
Se   15.68295000   10.17003000   14.06704000     -0.343218    0.17105000    0.48042900
Se   10.13512000   16.34126000    6.05289000     -0.022383    0.86690400   -0.30110000
Se   14.13435000   16.94403000   11.26204000     -0.268351    0.08894000    0.16408100
Se   14.68689000   21.46052000    1.03693000     -0.091773   -0.79318300    1.19173800
Se   15.79216000   23.20935000   13.95447000     -0.322507   -0.54729300    0.43375900
Se   17.83423000    6.41468000   18.93520000      0.062406   -0.96906300   -0.09891300
Se   14.71592000    5.81124000    9.50525000      0.214607   -0.95696900    0.42836500
Se   19.90726000    8.13215000    2.66304000     -0.520636    0.98222600   -0.66859500
Se    1.72761000   12.32874000   12.39412000     -1.779302   -0.13042500    0.80061900
Se   20.56614000   16.45604000    4.08060000     -0.984587    0.42909800   -0.54067300
Se   18.33235000   16.35923000   13.34593000      0.124351    0.23839400    0.51054600
Se   19.46851000   22.05116000    4.20491000     -0.057964    0.64262400   -0.02063900
Se   18.75887000    0.58393000   14.58233000      0.353926   -0.45383000   -0.24400000
