384
23.69824000 23.69824000 19.89960000
Ge    5.09563000    6.57227000   12.73835000     -0.815423    0.56521400    0.30026400
Ge    6.60892000    5.27047000    3.26114000     -0.345719   -0.69713600    0.02700000
Ge    1.90820000   13.12091000    6.88755000     -0.861090    0.10757700   -0.51780700
Ge    8.73868000   14.66314000   15.95595000     -0.115857   -0.88089800    0.34292300
Ge    5.19147000   14.90685000    9.81060000     -0.462672    0.57552000    0.17016800
Ge    9.36314000   18.59942000   19.80895000      0.750795   -1.13175400    0.09855500
Ge    8.18311000   22.72983000   11.05240000      0.131938   -0.74518400    0.76942800
Ge    5.69710000    0.88455000    0.29065000      0.760224    0.17566300    0.34548700
Ge    9.11681000    5.44425000   10.99047000      0.802399    0.97581800   -0.11592500
Ge   11.20960000    6.11611000   19.69763000     -0.067116   -0.29157600   -1.03475100
Ge   10.46048000    8.67521000   10.37965000      0.197226   -0.00631300    0.19654800
Ge   13.73377000   12.24312000   19.52188000     -0.053616    1.03038900   -0.48741000
Ge   11.39840000   18.30401000    8.77536000      0.562834   -1.31669500    0.43098900
Ge   12.82044000   15.99256000    0.56280000     -0.351317   -0.52091500    0.73077200
Ge   11.21304000   23.26188000    9.21797000      0.243292   -0.96834100    0.27097100
Ge   16.23841000   22.75009000   19.36490000      0.330983   -0.80505500    0.11493700
Ge   18.59251000    5.31088000   11.69409000      0.222169    0.44604500    0.53340100
Ge   19.96661000    8.88962000   17.14266000     -0.288992    0.48482900    0.02649900
Ge   19.60771000   11.39107000    9.93128000      1.299827    0.93446700    0.12836900
Ge   18.12535000   11.41508000   18.05152000     -0.240518    0.73663700   -0.32864500
Ge   14.81278000   19.81945000    9.12835000      0.174035    0.46253900   -0.60101200
Ge   18.07679000   15.51276000   19.39720000      0.947594    0.00588800   -0.05507900
Ge   19.61544000    1.99043000   12.67532000      0.025935   -0.63737200   -0.05713900
Ge   20.58868000    4.30526000    1.07265000     -0.860345   -0.08772300    0.45450800
Ge   23.13698000    6.20267000    8.86178000      1.222253    0.29712900   -1.10741200
Ge    2.08443000    3.23811000    4.30172000      0.369856    0.32380300    0.46512200
Ge    1.51739000    9.97129000    9.74092000      0.567407    0.07799000   -0.20791800
Ge    0.26957000    9.59143000    0.08639000      0.670868    0.24453300    0.55039000
Ge   21.16425000   15.41191000    8.98005000      0.645008    0.52565600    0.28147300
Ge    1.00855000   14.06611000   19.49293000      0.080989    0.05465900   -0.28622600
Ge   18.87835000    1.66176000    9.78703000     -0.296542   -0.43212800   -0.11461100
Ge    0.67614000   21.07127000   19.86606000     -0.230613    0.02280900    0.60358300
Ge    4.93104000    7.92802000    8.39372000     -0.005288   -0.02420400    0.09863400
Ge    1.52701000    6.65855000   19.05033000      0.357653    0.35751700    0.35444800
Ge    1.83395000    9.85608000    5.81701000      0.747320    0.19852300   -0.00202200
Ge    3.58951000   12.55816000   16.36422000      0.406346   -0.16288400   -0.38207200
Ge    5.86992000   17.55828000    3.61590000     -0.902938    1.14731500   -0.35794000
Ge    0.38287000   17.81959000   18.26295000     -0.781237   -0.36823300    2.86950900
Ge    4.70048000   20.55505000    8.76064000     -0.207696   -0.45577400    0.42947100
Ge    4.31608000   22.73965000   17.99057000     -0.400134    0.73192700    0.47504200
Ge    9.56033000    2.65582000    7.40066000      0.292904   -0.14440000   -0.01848500
Ge    6.97116000    8.49329000   18.97463000     -0.542161   -0.40550300   -1.54310400
Ge    5.83666000   12.72398000    6.59585000     -0.551085   -0.69913900   -1.38848500
Ge    8.19802000    8.76727000    1.93562000      0.338442    1.12573200    0.99884300
Ge    7.92200000   18.42952000    7.40087000     -0.412047   -0.54721100   -1.65715300
Ge    4.15315000   19.31135000   19.08168000      0.502829    0.46364500    0.38602800
Ge   10.80580000   22.40316000    6.22903000      1.392846   -0.29542100   -0.93843200
Ge   10.47593000    2.14045000   17.59601000     -1.701547    0.55887900    0.69898400
Ge   13.20847000    6.53516000    5.81869000     -0.818735    0.41170200    0.60743800
Ge   13.70691000    8.24358000   18.61183000     -0.321520    0.02836700    0.61171800
Ge   15.80001000   12.71190000    6.32099000     -0.465880   -0.92958000    2.05237800
Ge   16.83340000   15.87371000   16.53782000     -0.067841   -0.64413800    0.13881400
Ge   12.75345000   16.20662000    5.16544000     -0.862158    0.76966700   -0.62495200
Ge   15.26050000   18.34529000   16.62278000      0.386858    0.66641600    0.26720500
Ge   15.29445000    0.42333000   10.04478000     -0.848135   -0.25503500   -0.05825100
Ge   16.44394000    3.95919000   18.47607000      0.327593    0.52797800   -0.47539300
Ge   20.22868000    5.91637000    7.61463000      0.516378   -1.60160900   -0.16879000
Ge   21.83449000    5.69961000   16.72289000     -1.060636   -1.09772900   -0.99752600
Ge   19.54753000    9.21803000    7.92129000      0.129469    0.05301700    0.80453600
Ge   21.81417000   13.28840000   18.16739000      0.165596   -0.14272100   -0.05813700
Ge   19.61816000   18.02842000    7.12336000     -0.667632   -0.44536400   -0.01243600
Ge   20.57401000   19.14720000   16.14872000     -0.315052   -0.09112600    0.69998000
Ge   19.73311000    0.87889000    5.30270000      0.157415   -0.86993900    0.25494800
Ge   20.41339000   20.89972000    1.00807000     -0.380703    0.51997600   -0.25123100
Ge    5.52829000    3.38225000   10.36703000      0.852732   -0.51985000   -0.05507600
Ge    4.51421000    3.51068000   17.10191000     -0.046809   -0.36014700    0.16827500
Ge    2.83260000    6.55374000    5.32319000      1.003515   -0.45587800   -0.38034800
Ge    2.81747000    9.74989000   12.75957000      0.578197    1.00941900    1.07503900
Ge    2.67564000   17.40308000    5.93425000      0.062025    0.69103200    1.20951700
Ge    1.90767000   14.68249000   16.02373000     -0.148320   -0.06930100   -1.12320000
Ge   23.27212000   20.03497000    9.79294000     -0.688352   -0.59557300   -0.33131800
Ge    3.31961000   21.60567000   15.08452000      0.366640   -0.09256900   -0.83533600
Ge   10.27183000    3.67775000    2.23491000     -0.284162   -0.74603400   -0.07237400
Ge    8.46219000    2.40206000   15.77545000      0.589518   -1.96302400   -0.32823100
Ge    9.27970000   10.75221000    5.04391000     -0.251643   -0.39014200    0.14461900
Ge    7.39898000   10.48839000   15.55866000     -0.938809    0.52936700   -0.01552300
Ge    9.11222000   14.45017000    6.88345000      0.350640   -0.92326300   -0.09349100
Ge   14.82995000   11.40738000   16.27780000      0.820103    0.14723400   -0.19537400
Ge    7.55676000   21.67967000    4.75261000     -0.331355   -0.31494300   -0.39630900
Ge    8.37245000   19.73145000   15.63079000     -0.011810    0.33430500    0.06044600
Ge   14.62456000    2.23890000    6.75850000     -0.106882   -0.99236100    0.38017400
Ge   12.62320000    2.56059000   15.84926000      0.614731    0.51160100   -0.55314900
Ge   15.72321000    9.66255000    4.92569000     -1.800120   -1.15533900   -2.32555300
Ge   15.73266000    7.91723000   15.60725000     -0.233727   -0.04938000   -0.31523100
Ge   15.76163000   14.07420000    3.70428000     -0.095532   -0.83755900   -1.45797700
Ge   12.76253000   15.67577000   15.52765000      1.191074    0.67934300    0.21017500
Ge   13.74635000   19.11260000    0.29694000      1.061045    0.16499600   -0.05643800
Ge   10.01432000   21.67087000    0.19681000      0.213363   -0.49646900   -0.22251200
Ge   23.27004000    4.17266000    3.95701000     -0.074529    0.47054900   -0.10842800
Ge   22.95993000    2.61414000   15.86418000     -0.273106   -0.62833900    0.12209500
Ge   22.79972000    9.18602000    7.07963000     -1.044151    0.48424200    0.28342100
Ge   20.25608000    9.86417000   13.28572000      0.638275   -0.61694900    1.41768400
Ge   22.95561000   16.28833000    4.97312000     -0.415753   -0.18394600   -0.30268700
Ge   19.42759000   13.85962000   13.70152000      0.371189    0.29703000   -0.04825900
Ge   20.31965000   20.76253000    6.08384000      0.192501   -0.21779200   -0.56025400
Ge   20.75874000   23.30110000   17.82553000      0.998999    0.05323300   -0.95084100
Ge    6.14726000    4.53050000    5.86072000      0.452609    0.30667800    0.27337500
Ge    4.05517000    1.55763000   13.49893000     -0.380040    1.54924600    1.39564200
Ge    5.25415000   11.31519000    3.47962000     -0.028330   -0.63899200    0.14899700
Ge    7.53220000    8.55464000   12.86403000      0.691094    0.39347700   -0.34963500
Ge    5.37520000   15.08786000    0.44276000     -0.336578    0.47320300   -0.03473100
Ge    4.13723000   12.72964000   12.82196000      0.399126    0.67260600    0.32222300
Ge    4.66335000   22.47354000    6.06089000     -0.545852   -0.07016100    0.56592700
Ge    6.25000000   21.06737000   13.35653000     -0.177944   -0.03577900   -0.35163500
Ge   15.00271000    6.22367000    2.42804000      0.275433   -0.26963600    0.24615800
Ge   13.31039000    0.09660000   13.26173000      0.037221    0.16591700   -0.08598000
Ge   10.57481000   10.19014000   19.66461000      1.003068   -0.30035200    0.14850800
Ge   13.87387000    9.00735000   12.76098000      0.518509   -0.36032800   -0.06024200
Ge   10.74306000   13.74949000    2.56252000      0.129098   -1.02158200   -0.77905300
Ge    8.18570000   17.18435000   10.79290000      0.621531    1.27965700   -0.78224100
Ge   12.63903000   22.77587000    1.27533000     -0.450757    0.57042800    0.63660100
Ge   10.38394000   22.42643000   13.99362000      0.009146    0.32299200   -0.30490100
Ge    0.35038000    1.73284000   19.03093000      1.137651    1.83119900   -0.81205600
Ge   12.93856000    6.45651000   13.07174000     -0.290999   -0.66331200    0.02212100
Ge   17.55083000    8.56961000   19.88409000      0.265360    0.35033100   -0.56301800
Ge   12.83744000    6.60416000    8.34947000     -1.916893    0.17683000   -0.47603000
Ge   20.50194000   13.28446000    2.75962000      1.789567    1.01472100   -1.68707000
Ge   16.18207000   17.00044000    7.89989000      0.166243   -0.52234000   -0.50435400
Ge   17.04840000   21.07721000    2.81933000     -0.214814   -0.15485900    0.60914000
Ge   18.88496000   21.62571000   13.29901000     -1.154035    0.23657800   -0.19676800
Ge    0.96018000    1.52843000    2.39225000     -0.460046    0.13745600    0.21813600
Ge   22.92344000    2.44287000   10.30676000      1.195055   -0.07259300    0.11018100
Ge   22.50691000   10.03817000    3.09665000      0.394856   -0.10360100   -0.68043800
Ge   23.00732000    9.03963000   13.29485000     -0.999179   -0.00268500   -0.15034600
Ge    2.57082000   13.26148000    3.89648000     -0.038887   -0.36552500   -0.18243100
Ge    0.16886000   16.07912000   11.52342000      0.197503    0.67419300    0.07950300
Ge    0.37816000   21.39102000    3.85914000      0.869733   -1.77642300    1.52161700
Ge   20.90471000   18.30911000   12.67336000     -0.159992   -0.93014700   -0.82127900
Se    2.54383000    0.58753000   19.67149000      0.463276   -0.39460400    0.21542900
Se    1.56780000    1.37953000    9.70648000     -0.969486   -0.29298000    0.08885600
Se    0.70540000    7.46969000    1.43490000      0.054895    0.13119000   -0.95575400
Se   23.46439000    8.79132000   10.98238000      0.014116   -0.25680700   -1.10757100
Se   21.98604000   11.96096000    1.04484000      0.016223   -0.60587900    1.00582800
Se    1.24429000   14.15654000    9.04978000      0.012767    0.46951300    0.44955500
Se    2.16608000   19.55348000    3.14002000      0.104187    1.39130400   -0.03635400
Se   23.31228000   18.77188000   12.02318000      0.090667   -0.72431600    0.01417500
Se    7.03237000    3.22870000    1.78635000      0.275338    0.21264600    0.77117000
Se    5.93799000    3.43255000   13.43579000      0.066867   -0.07472200   -0.66777400
Se    9.67050000    5.12708000    4.51807000     -0.563522   -0.12093800   -0.04248200
Se    7.92452000    9.08550000   10.06169000     -0.102450   -0.88865100    0.48655500
Se    8.04014000   10.42896000    0.02418000      0.772701    0.93141100    0.68852800
Se    7.06281000   15.32282000   11.41028000     -0.704305   -1.79762300    1.07908900
Se    7.22873000   19.73931000    2.79456000     -0.142345    0.31358400   -0.05483500
Se    9.98756000   20.40854000   11.27582000     -1.099229    0.81373200    0.80294700
Se   13.10256000    0.95414000   19.70559000     -0.293484   -0.45439000   -0.43323700
Se   12.76015000    3.12450000   12.15258000     -0.291416   -0.69035600   -0.57038500
Se   11.36709000    8.46059000   17.67032000     -0.150007    0.34309300    0.74898000
Se   10.58591000    9.76069000    7.09841000     -0.508406   -0.22258700    0.05284800
Se   13.37421000   13.66767000    1.72020000     -0.217149   -0.05659500   -0.59276500
Se   13.07315000    8.79125000    9.26647000     -0.689182    0.55287500   -0.18264100
Se   15.05812000   16.64499000    1.42679000      0.455942    0.29024200    0.17518000
Se   12.37442000   18.46390000   11.11795000     -0.190808    0.75247300   -0.05893500
Se   18.79858000    3.78533000    3.57992000      0.194545   -0.03286600   -0.23887100
Se   13.84629000    4.13109000   13.89452000      0.090221   -0.22434700    0.64489200
Se   15.70758000    4.96700000   16.05452000     -0.025958    0.03806400    1.19840600
Se   19.98255000    4.03514000   14.04906000      0.743659    0.84753200   -0.18988800
Se   20.08527000    9.21387000    0.05971000     -1.575193    0.97461400    1.26779600
Se   17.05237000   19.32149000    7.44321000     -0.411108    0.10737000    0.14272900
Se   20.16484000   17.11893000    0.33039000     -0.553154    0.04239000   -0.71861700
Se   19.41427000   19.32222000   10.99398000      0.541980    0.70880900   -0.47587100
Se    2.81817000    0.84849000    5.01843000      1.065650    0.65189200   -0.35406500
Se    2.49227000    5.50963000   12.04055000      0.686465   -0.98705600    0.09294100
Se    5.86077000   11.48286000    1.08747000     -0.565482    0.57406400    0.09528200
Se    4.71873000   12.52359000   10.58233000      0.194140   -0.13967800   -0.06772700
Se    3.94016000   13.19491000    1.33603000     -0.466129   -0.01039200   -0.10935700
Se    3.28244000   16.51497000   11.05067000     -0.174041   -0.19389800    0.22127100
Se    5.84558000   21.90964000   19.78086000     -0.339481   -0.62836700    0.04626700
Se    4.57354000   19.83345000   11.70129000      0.011523    0.02485600    0.25789000
Se   12.05277000    6.58354000    2.01867000      0.458493   -0.57538500    0.62047500
Se    8.57686000    3.23209000   10.53701000     -0.633947   -0.68899600    0.18183600
Se   10.85659000   12.61566000   18.89787000     -0.196985   -0.58297500   -0.94651200
Se   10.90599000   11.13248000   10.91129000     -0.948193   -0.04544300   -1.36881200
Se   11.07067000   16.05978000    2.82723000      1.020789    1.01340800    0.22985000
Se   12.08964000   14.79128000   13.36564000      0.046207   -0.18869800   -0.51066200
Se   11.44556000   23.69628000   17.75261000      0.770705   -0.33602800    0.70168800
Se   10.14317000    0.64994000   11.39242000     -0.456831   -0.98177500   -0.02857800
Se   12.00801000    4.21034000   17.59377000      0.182812   -0.86344300   -0.05895800
Se   17.70106000    8.15809000    9.57786000     -0.062745   -0.83861900   -0.66568000
Se   16.84188000    9.05728000    2.23220000     -0.504563    0.16446800    0.99646300
Se   17.72099000   13.25451000   10.57181000      0.660274   -0.12818200   -0.63435600
Se   18.35897000   14.40174000    2.30899000      0.028257   -0.22319800   -0.04780100
Se   14.08401000   15.18753000    8.03432000     -0.766762    1.68203500   -0.48945800
Se   18.17210000   22.57955000    1.31366000      0.076053    0.61794200   -1.35517300
Se   17.18657000    0.27077000   11.47262000     -0.245751   -0.35633200   -0.18521700
Se   23.36987000    3.51110000    1.29926000      0.054905   -0.17385800    0.27813800
Se   22.00198000    4.70784000   10.26726000     -0.153949   -0.88872500    1.70976800
Se   21.29085000    6.41249000    2.25699000      0.697158   -0.29864200    0.32869700
Se   21.08246000   11.80340000   12.28071000     -0.588282    0.85097600   -0.64170800
Se   22.82542000   14.39862000    3.18461000     -0.911004    0.38741400    0.38242500
Se   21.33078000   15.81929000   11.55982000     -0.552206   -0.39078700   -0.33002400
Se   22.94540000   22.38050000    2.27035000     -0.506496    0.91866300   -2.27424500
Se   21.75284000    0.01453000   15.56818000     -0.024711    0.58896300    0.21603400
Se    3.71322000    4.94407000    9.97605000     -0.450895    0.66666400   -0.30556100
Se    5.26017000    6.57668000   18.24914000     -1.120795    0.14731500   -0.10316000
Se    3.84750000   11.91063000    7.61141000      0.349041   -0.92841900    0.58610400
Se    3.77515000    7.68343000   15.15024000      0.419664   -0.32427800   -0.72200500
Se    6.07467000   20.17756000    6.47759000     -0.017656   -0.15696300   -0.35557800
Se   22.62463000   15.27858000   19.40567000     -0.648828    0.43917700   -0.22759100
Se    0.69737000   21.60868000   11.22122000      0.488053    0.95323100    0.05894200
Se    2.76284000   20.82817000   17.55142000     -0.624234   -0.56970600    0.63877200
Se    7.56244000    4.41157000    7.97289000      0.182821   -0.61315400   -0.61227900
Se    5.67393000    5.05141000    0.22032000      0.164913   -1.05997900    0.18987200
Se    7.45200000   10.88095000    6.79701000     -0.117994    0.08648300   -0.24440600
Se    3.92134000    9.82816000   19.73839000     -0.090671   -0.43099600   -0.53963800
Se    6.40719000   17.87177000    9.08040000     -0.565534    0.12687000    1.21382100
Se    6.36262000   16.22688000   18.22902000      1.016720   -0.88572500    0.40236500
Se    9.91636000   19.71110000    7.59552000      0.528123    1.17879400    0.18475900
Se    8.99792000    1.97135000   19.74479000      0.404284    0.66739900   -0.18943700
Se   14.13736000    2.74493000    9.51007000      0.157832   -0.73349300   -0.54183100
Se    8.63252000    4.83007000   18.40216000      0.073721   -0.37552000    0.07132500
Se   10.45688000    5.83620000    8.76780000      0.214109    0.21304200    0.02846500
Se   17.10692000   13.11311000   16.30630000     -0.230934   -0.99326100    0.20602200
Se   13.55349000   18.41726000    7.43977000     -0.840638    0.07429600   -0.09814800
Se   14.89785000   16.50374000   18.14029000     -0.071644   -1.03424100    0.50229900
Se   15.60011000   23.53973000    7.69385000      0.309352    0.28452800   -0.07213100
Se   18.38081000    2.42514000   16.88286000     -0.442050   -0.09676000   -0.35177400
Se   16.94528000    3.55356000   12.40776000     -0.644627   -0.17695400   -0.83776700
Se   21.44651000    3.66211000   17.85844000      0.521540   -0.16158900    0.12936000
Se   18.18777000    8.90137000   12.09137000      0.099821   -0.22352100    1.22569300
Se   20.93475000   10.74255000   15.86129000     -0.513217   -0.41375100   -0.66958600
Se   15.98550000   17.90859000   10.16768000      1.066699    0.12859000    0.93848200
Se   19.55872000   13.06799000   19.28440000     -0.049284    0.61270100   -0.33624100
Se   18.99195000   23.31905000    8.10295000      0.448080    0.40905800   -0.44162900
Se   18.93076000   19.03201000    1.66016000     -0.035872   -0.73992100   -0.32028900
Se    5.38435000   23.52223000    8.84448000      0.409922   -0.52659900   -0.23845800
Se    4.36188000    2.96518000   19.77083000     -1.245022    0.51898600   -0.80789400
Se    6.92667000    6.62446000   10.23475000      0.054855    0.84799200    0.04558500
Se    4.07914000    7.41078000    0.49599000      0.265205    0.48623600   -0.74156600
Se    4.93913000   16.49985000    6.32462000      0.439654   -0.08717200   -0.08925900
Se    6.32339000   12.32793000   16.80204000      0.729173   -0.49995300    0.07705700
Se    2.51721000   19.11339000    8.39356000      0.434131    0.16227100   -0.43237300
Se   23.50884000   18.69983000    0.65676000      0.417595    0.40819900   -0.94691200
Se    9.08325000   23.61009000    7.20394000     -1.358263    1.46789100    0.37260900
Se   12.71448000    4.08433000    1.74405000     -0.500710    1.02008100   -0.25143000
Se   11.64461000    1.93292000    9.30473000      0.101006    1.46632500   -0.00578300
Se    7.91777000    6.72679000    0.57081000      1.105704    0.33027600    0.65376600
Se   10.79897000   13.41360000    8.31383000      0.544246   -0.34005900   -0.38490100
Se    8.95915000   14.39941000    0.70545000      0.436511   -0.12780200   -0.76498900
Se   13.25227000   22.69337000   11.03511000      0.839709    0.31360300   -0.61936000
Se   13.36964000   13.59414000   16.94437000     -0.674832   -0.21420300   -0.33632600
Se   16.87699000    2.67976000    8.49893000      0.556821    0.46185600   -0.22390600
Se   17.77945000    5.13361000    1.28736000      0.119530   -0.44408400    0.04852000
Se   15.52720000    7.68561000    8.33108000      0.137621    0.28453700   -0.00124000
Se   15.79750000    9.35513000   18.01025000      0.185682    0.60447500   -0.36805000
Se   15.23596000   13.46127000    8.75203000      0.357750   -1.73170100   -0.50934000
Se   16.41789000   13.06216000   19.34788000     -0.161585   -1.16413900    0.49539300
Se   14.52087000   19.14374000    4.14439000     -0.274073    0.84630300    0.39286400
Se   20.19291000   21.03072000   18.00325000     -0.524046   -0.65082400    0.33036100
Se   21.44077000    2.12277000    8.49297000     -0.221558   -0.97609800   -1.37548100
Se    0.43076000    0.38409000   16.28736000     -0.018641    0.27217000   -0.34170200
Se   20.96185000    7.22552000    9.51276000     -0.801936    0.96706100    0.17322300
Se   23.46326000    7.27965000   16.96551000      1.624920    0.69794400   -0.08506200
Se    0.09869000   11.41452000    8.01917000      0.786727   -0.21361100   -0.18414900
Se   22.00046000    8.60624000   18.59969000      0.023395   -1.30617600   -0.38849600
Se   22.02336000   17.94091000    7.53954000     -0.348326   -0.66971300    0.45906400
Se   19.92502000   16.58466000   17.69014000     -0.101518    0.31199200    1.33813100
Se    0.88843000   22.84315000    9.13120000      0.415120    0.70302200    0.31023700
Se    3.10205000   23.23020000   13.02577000     -0.463399   -0.93352000   -0.61976900
Se    2.47127000    7.88343000    7.93678000     -0.348485    0.92255400   -0.23836600
Se    2.05914000    9.36536000   18.03929000      0.026686   -1.04895000    0.44582800
Se    0.36194000   16.42121000    8.90786000      0.224683   -0.42588600   -0.20676100
Se    1.01013000   11.91395000   18.08428000     -0.098383    0.81377800   -0.05344300
Se    2.45781000   19.87681000    5.78323000      0.280427   -0.71379000    0.10176700
Se   23.15720000   18.94533000   16.64595000     -0.407210    1.38541200   -1.83844100
Se    5.45574000   22.85934000    3.83718000      1.156666    0.08319900   -0.10713400
Se    6.39648000    1.47505000   17.07840000     -0.411840   -0.25199100    0.12603900
Se   10.40417000    6.96793000    5.72556000      0.795441    0.04932200   -0.03362800
Se    6.13547000    8.05151000   15.56193000      0.227380    0.35819800   -0.04015400
Se    6.95317000   13.84575000    8.22900000      1.159747    1.09972700    0.98945400
Se    8.18283000   19.40207000   12.63007000      0.346505   -0.13189500   -0.21983600
Se    7.73162000   16.27181000    3.96386000      1.012817   -1.14958900   -0.38860800
Se    9.25873000   16.89037000   15.27269000      0.419970    0.21781500   -0.42370600
Se   15.19189000   21.54627000    5.64238000     -0.234533   -0.01299600   -0.80932400
Se   14.42683000   22.73684000   16.12000000      0.194730    0.74351800   -0.48875300
Se   13.11072000    8.70396000    4.99854000      1.142409    0.58204900   -0.31732200
Se   10.23713000    7.93898000   13.46242000     -1.045270    1.01718400   -0.49131500
Se   14.24037000   12.11783000    4.65642000     -0.314567    0.43591700   -0.09055100
Se   15.33685000   15.26481000   14.71811000     -1.187815    0.17854500   -0.48702100
Se   12.16237000   18.70948000    4.08288000      1.059565   -0.33414500    0.36412300
Se   16.04386000   19.47504000   18.68865000     -0.516769    0.79903900   -0.14746900
Se   17.63193000    1.82193000    4.49688000     -0.080013    0.77487300   -0.29788500
Se   18.92997000    0.88177000   18.54921000     -0.573740    0.09630300    0.95160200
Se   19.97300000    7.69485000    6.13969000     -0.336221    0.24383500   -1.61393200
Se   19.70293000    6.73542000   15.94495000      0.055863   -0.35775300    0.52167100
Se   20.00077000   12.12981000    4.60248000      0.009417   -1.34684000    1.75183900
Se   17.12760000   13.43150000   12.78965000     -0.337630   -0.34469600    0.32594700
Se   19.01488000   18.44354000    4.62103000      0.917104   -0.59500600    0.66914900
Se   20.85944000   20.38312000   13.94675000      1.052046    0.81536300    1.20549000
Se    5.32960000    6.97330000    6.12849000     -0.058075   -0.33780800   -0.16324500
Se    2.64551000    2.19023000   16.21294000      0.522825    0.52878600   -0.41534600
Se    3.11135000    9.76045000    3.04592000      0.242108   -0.11154700    0.94534300
Se    4.61096000   11.08142000   14.45472000     -0.696428   -1.50029700   -0.69556000
Se    4.86511000   14.44969000    4.95464000      0.312110   -0.36650700    0.28987200
Se    2.03388000   16.27643000   17.92849000      1.167738   -0.51007500    0.73950800
Se    1.25327000   22.93804000    5.48683000     -0.572128   -0.72384300    1.04403000
Se    3.05525000   19.26497000   13.51907000      0.038427    0.85678700   -0.58666800
Se   12.44970000    0.67902000    6.13043000     -0.256656    0.46390500   -0.07450700
Se    8.36760000    4.65779000   16.06495000     -0.369106    1.98666300    0.12952900
Se   11.89168000   11.62107000    6.74303000     -0.003956    0.78702500    0.74116800
Se   11.03274000   12.28939000   16.33138000      0.776614    0.81642600    1.37753900
Se    9.95211000   16.05137000    9.27753000      0.326046    0.80596800    0.06341600
Se   11.64738000   19.83169000   19.07247000     -1.041756    0.54948700   -0.25507100
Se    9.97189000   22.59573000    3.42863000      0.722783   -1.36203800    0.88878400
Se    8.21078000   20.38886000   18.74765000     -0.212252    0.74957500   -0.54133300
Se   14.62101000    4.91285000    4.93778000      0.224595   -0.05880300   -0.41041100
Se   14.43370000    5.78671000   18.60997000     -0.854478    0.24747100   -0.01590300
Se   16.74725000   10.50237000    6.76840000      1.277815    0.06368800    1.80130200
Se   17.46872000    7.11878000   13.63399000      0.563363   -0.26000400   -0.80044700
Se   17.21611000   14.31325000    5.60619000      1.228832    0.42225700    0.29647900
Se   13.15976000   18.34305000   15.59952000     -0.507821    0.10895800   -0.31233600
Se   15.65002000   23.62422000    3.92382000      0.063022   -1.23029300    0.48945900
Se   17.52251000    3.95304000   14.63606000     -0.324416   -0.17588000    0.47859500
Se   22.28435000    4.37995000    6.71737000     -0.753361    1.04714500    0.43412400
Se   22.72561000    4.89123000   14.39246000     -0.193756    0.49496800    0.04986300
Se   17.36035000   10.68562000   10.13554000     -1.272895    0.55974400   -0.32663300
Se   21.59168000   13.89902000   15.66200000     -0.064642    0.09915100   -0.22517400
Se   18.91634000   15.63230000    8.01827000     -0.470497    0.88121400   -0.10986500
Se   22.36187000   16.13296000   15.42375000      0.051573    0.11482600    0.34971400
Se   21.50469000   23.24174000    8.32622000     -0.811756    0.13356300    0.24380400
Se   22.73692000   23.55593000   19.21266000     -1.477753   -2.03556300    0.98918900
Se    4.50751000    3.14038000    7.12066000     -0.240322    0.27802400    0.12279900
Se    5.20758000    0.05475000   15.42730000      0.216466    0.01043100   -0.25397100
Se    4.07010000    4.52331000    3.43474000      0.009581    0.69711400    0.04098700
Se    3.99191000    8.51098000   11.16299000      0.550826   -0.52595400    0.11226700
Se    1.31119000   11.06850000    2.13142000     -0.313785    0.30653900    0.58603500
Se    4.76212000   14.35454000   14.47391000     -0.703667    0.41783800   -0.09379300
Se    4.35858000   16.95569000    1.65141000      0.301633    0.23287500    0.12448800
Se    3.68945000   16.76651000   13.32454000      0.093992   -0.07455000    0.01464200
Se    8.99549000    0.68086000    2.58080000     -0.678812    1.90164300   -0.87651800
Se   11.01806000    1.46624000   14.32157000     -0.484945   -0.06159500    0.27230200
Se   10.33576000   10.00940000    2.79552000     -0.470703   -0.70390600   -0.62962900
Se    8.75754000    8.95986000   16.73553000      0.228786   -0.55536100    0.67970000
Se    9.45083000   13.19621000    4.57378000     -0.639309    0.01980500    0.80746500
Se   12.22812000   10.78071000   12.67545000      0.504544    0.72165500    1.89216100
Se    9.55219000   19.39875000    2.32868000     -0.111836    0.40618100    0.01886100
Se    8.08034000   22.22097000   15.00785000      1.230425    0.23845600    0.18493100
Se   18.08782000    4.96914000    8.44349000     -0.326297   -0.14780700    0.45069000
Se   14.66935000    1.39523000   16.54615000      0.166181   -0.06559200    0.08209300
Se   16.53192000    7.15737000    4.10302000      0.314343    0.44520800    0.06394700
Se   13.03346000    7.77358000   15.20902000      0.633288    0.14328800   -0.47174000
Se   16.94710000   12.09845000    1.65855000      0.148254    0.79545300   -0.24019200
Se   17.80075000   17.90979000   15.13943000      0.251240    0.82711900   -0.69062700
Se   15.41667000   16.46792000    3.85327000     -0.503698    0.74833100   -0.50441700
Se   16.89837000   20.38873000   14.31666000      0.305966    0.06604300   -0.10121100
Se   23.33442000    1.91658000    4.72347000     -0.728607   -0.55375900   -0.17110200
Se   21.96509000    1.11620000   11.95267000     -0.076770   -0.43395900    0.91772100
Se    0.23644000    8.11833000    5.22737000     -0.311841   -0.37638700   -0.84280700
Se   21.64922000    7.10835000   13.66096000      0.194988    0.12786700   -0.22674400
Se    2.08822000   15.66545000    4.38168000     -1.087764    0.73222700   -0.40862300
Se    1.07267000   12.18317000   14.93782000      0.375137    0.82864800   -0.19924700
Se   22.77790000   20.17513000    5.65388000     -0.016356    0.20452500   -0.22672500
Se   20.94611000   21.28990000   10.38333000     -0.304719   -0.74490300    0.08063500
Se    2.60374000    4.58149000    6.88062000     -0.789052   -0.97209400   -0.11497600
Se    2.02726000    3.19012000   12.56108000      0.155497    0.42981300    0.06671300
Se   22.38902000   11.35403000    5.22029000     -0.987794    0.31715400    0.11634200
Se    1.30748000    9.16509000   14.49443000      0.226340   -1.02020100    0.95312600
Se    1.84091000   14.99938000    1.67505000      0.108715   -0.33505800   -0.05592200
Se    1.13142000   16.63343000   14.52384000     -0.027611   -1.06223500   -0.22633300
Se    4.05518000   20.90755000    2.07143000     -0.945341   -0.91346700   -0.62146900
Se    5.20430000   17.54642000   16.80294000     -0.902422    0.58343700   -0.33549900
Se   10.94530000    3.17648000    5.26147000      0.018915   -0.63120300    0.30374300
Se    8.10787000    2.41939000   13.12054000     -0.314080    0.28487800    0.70029900
Se    6.60839000    9.11042000    3.84846000      0.359299    0.08569300   -0.70951800
Se    8.07673000   11.03962000   13.30809000      0.002920   -0.66843400    0.43803500
Se    7.12664000   14.45119000    2.05473000      0.369410    0.10227300    1.37776200
Se    9.75114000   15.13471000   13.54692000     -0.390892    0.32861700    0.01379400
Se    7.21944000   21.95574000    8.86353000     -0.031097    0.60191500    0.37985300
Se    5.89122000   19.81682000   15.98634000      0.172033    0.57601300   -0.66057800
Se   13.88389000    0.93202000    2.74149000     -0.572624   -0.04960100   -0.31344700
Se   10.36281000    5.61454000   13.41667000     -0.195228   -0.56618300   -0.33761600
Se   13.18376000   10.13898000    0.56934000     -0.002213   -1.51123600    0.50728400
Se   15.71558000   10.10780000   14.12471000     -0.216050    0.69883100    0.23477400
Se   10.14198000   16.37654000    6.00636000      0.064572    0.99328600   -0.36321000
Se   14.17906000   16.99898000   11.34041000     -0.512210   -0.81272600    0.51469800
Se   14.64200000   21.42894000    1.05864000      0.760074   -0.40488000    0.26885300
Se   15.70131000   23.20873000   14.02668000      0.072893   -0.67064800    0.05252200
Se   17.81116000    6.36538000   18.96645000      0.243175   -0.97020100    0.00492100
Se   14.63165000    5.79573000    9.52941000      1.605323   -1.11039900    0.76072600
Se   19.88907000    8.24058000    2.60927000      0.305479   -0.11519600   -0.73942400
Se    1.78943000   12.22175000   12.44187000     -0.731745    0.08645200    0.67335800
Se   20.62530000   16.56243000    4.03158000     -0.350230    0.50530400   -0.27055500
Se   18.25114000   16.26909000   13.28809000     -0.083981    0.46729700    0.80136000
Se   19.53050000   22.04132000    4.08137000     -0.050327    0.46759500    0.44340600
Se   18.71075000    0.54225000   14.66333000      0.496073   -0.17134800   -0.44316700
