384
23.69824000 23.69824000 19.89960000
Ge    5.57075000    6.02110000   12.06665000      0.708183   -0.33560900   -0.43599400
Ge    5.27613000    4.22690000    3.02057000     -0.934084    0.73988800   -0.97629400
Ge    3.04149000   11.98584000    6.94128000      0.423575   -0.16582200    0.86108100
Ge    9.01541000   13.98344000   17.18012000     -0.141057   -0.00447000   -0.15257000
Ge    5.09062000   15.71215000    9.60942000     -0.389971    0.01583800    0.58852600
Ge    9.23455000   18.20582000   19.27024000     -0.015354   -0.13341400   -0.49989700
Ge    7.59315000    0.03027000   11.15398000     -0.856274    0.42898200   -0.40889000
Ge    5.51360000    2.05418000    0.38714000     -0.014807    0.36503300   -0.15356500
Ge    8.57120000    4.68566000   11.68695000      0.805175    0.17954400   -0.93750500
Ge   11.21034000    5.07266000   18.31820000      0.866357    0.45727500    0.38168500
Ge   12.05934000    9.30392000   11.37287000     -0.087468   -0.57740800    0.82429800
Ge   13.48988000   12.75854000   18.52551000      0.172129   -0.37482800    0.80018900
Ge   11.30861000   17.74981000    8.94000000     -0.127199    0.55440200   -0.17202500
Ge   13.51364000   16.61199000    1.04471000     -0.921585   -1.58582300   -0.97915700
Ge   11.26368000    0.42600000   10.12252000     -0.875999    1.21812000   -0.86885200
Ge   16.25044000   22.17365000   18.91193000     -0.145434    0.12115800    0.77637800
Ge   19.43785000    5.05256000   11.64143000     -0.675550   -0.32888600    0.37212200
Ge   19.61875000    8.44812000   17.45641000     -0.609946    0.41174100    0.75270700
Ge   19.38161000   12.80718000   10.15598000      0.617511    0.19435100    0.33109200
Ge   18.33423000   12.12497000   18.56544000     -0.005040    0.23071500   -0.16025900
Ge   14.54157000   18.47223000    9.17460000     -0.525585   -0.01295100   -0.88484900
Ge   18.57651000   16.11085000   19.52983000      0.577053    0.20843300    0.25410200
Ge   19.28054000    1.37983000   11.01344000      1.092530   -0.18766300    0.06350200
Ge   18.57572000    3.56971000    2.21667000      1.255839    0.22792000    0.49945500
Ge   23.32364000    6.04388000    9.08594000     -0.483062   -0.76941200   -0.44733200
Ge    1.03904000    3.73065000    3.48270000     -0.993485    0.40487100   -0.18917300
Ge    1.83989000    9.56399000    9.65208000      0.243727   -0.36385200   -0.37330500
Ge    0.51117000    8.89617000    0.01607000     -0.624425    0.68207100   -1.41447100
Ge   21.94179000   15.56026000    9.44666000      0.273049    0.69738800   -0.76347100
Ge    1.64677000   14.61485000   19.46983000     -0.036673    0.61683000    0.04806600
Ge   20.86889000   23.04887000   10.11199000     -1.366702    0.47816800    0.51038400
Ge    1.80174000   21.44687000   19.88058000     -2.313648   -0.31220900    0.24449300
Ge    4.78164000    7.39081000    9.16623000      0.316798    0.52430300    0.21513400
Ge    2.35522000    6.33668000    0.03445000      0.559401   -0.62093300   -0.60216100
Ge    1.41000000   10.67398000    4.76156000      0.536937    0.29797700   -0.23590000
Ge    4.49636000   13.02881000   15.74198000     -1.222061   -0.68629000   -0.13407000
Ge    5.68160000   19.98261000    2.77894000      0.617354    0.42239600    1.34038100
Ge    0.55072000   17.96137000   18.32914000     -0.105012   -0.21474000    0.18103900
Ge    5.44203000   20.58384000    8.76116000      0.116829   -1.34731300    0.55294100
Ge    3.48934000   23.16759000   17.62228000      0.186917    0.87044500    0.01127100
Ge   10.78403000    2.40931000    6.91150000      0.429413    0.11236200   -0.30896300
Ge    6.76132000    8.13742000   19.15749000     -0.362753   -0.13058700    0.40831600
Ge    6.34627000   12.46049000    6.55075000     -0.268864   -0.11603100    0.15324100
Ge    8.14748000    9.85551000    2.09667000      1.140568   -0.86365600    0.00241000
Ge    6.79371000   17.66650000    6.76136000      0.059716    1.04736000   -0.08534700
Ge    5.68942000   20.76021000   18.76945000     -0.671209   -0.45219100   -0.49779800
Ge   12.07835000   22.62892000    5.76025000      0.460216    1.41697900    1.08997900
Ge   10.42677000   23.66432000   17.11887000      0.056999   -0.38464400   -0.55993100
Ge   12.42380000    6.90301000    6.17732000      2.062672   -0.05686500   -0.45174900
Ge   14.62116000    7.93888000   16.81489000     -0.361073    0.65907200    0.64395100
Ge   15.68832000   11.91559000    5.90700000     -0.738785    1.05949200   -0.16663100
Ge   17.09130000   14.92210000   15.90029000     -0.465912   -0.32450900   -0.05660800
Ge   12.07804000   15.99809000    5.29287000      0.852858    0.22125600   -0.00926500
Ge   14.97776000   19.07277000   16.95972000      0.025168    1.89109900   -1.37462100
Ge   15.67427000    0.27073000    9.28479000      0.773238   -0.36140600    0.86000500
Ge   18.23634000    3.33842000   18.36007000      0.619673    0.83201300    1.12183500
Ge   19.69778000    5.51634000    8.32740000      0.231205    0.57795700    0.94531700
Ge   21.94822000    5.39182000   16.86653000      2.273269    1.12185400   -1.69095200
Ge   19.99003000    8.45213000    7.55818000     -0.727455    2.04149100    0.42327500
Ge   22.36062000   13.79070000   17.90536000      0.494386   -0.53464000    0.48983700
Ge   19.64289000   16.92520000    7.37119000     -0.159204   -0.34320200    0.19477700
Ge   18.48064000   19.35506000   16.44560000     -0.678965   -0.62342000    0.20111300
Ge   20.25943000   23.55392000    6.97805000      0.324576   -0.43649200   -0.91025900
Ge   19.77952000   21.22782000    0.87400000      0.150271   -0.77205700   -0.01020700
Ge    6.13104000    2.79120000    8.91971000      0.768463   -0.37005700    0.32214600
Ge    3.11676000    3.03402000   16.89359000      0.607164    0.33809200   -0.23245300
Ge    3.31928000    7.13718000    5.88978000     -0.143071    0.56260500   -0.84874000
Ge    3.10835000    8.84548000   14.23143000      0.548841    0.28611000   -1.02116300
Ge    1.40089000   17.16476000    6.45808000      0.527306    0.21892400    0.30535700
Ge    1.83264000   15.24121000   15.82525000      0.235759   -0.75700100   -0.12039800
Ge    0.17611000   20.80239000   10.36733000      0.831210    0.34440400    0.27311300
Ge    5.05237000   20.91003000   16.11658000      0.799797   -0.24053900    1.16148000
Ge    7.30765000    2.23318000    3.47366000      0.954509   -0.13212000   -0.58106700
Ge    8.08758000    2.34466000   15.52398000      0.780345    0.46493100   -0.16883000
Ge    8.78497000   10.08361000    4.95601000     -0.006519    0.79975300    0.39835400
Ge    9.19180000   10.83801000   14.90058000      0.480347    0.95335800   -0.62900600
Ge    9.06979000   14.24651000    6.54464000      1.172364    0.72314700   -0.64771300
Ge   13.96700000   12.47851000   15.73592000      0.142295    0.82158800   -0.33403900
Ge    8.64007000   21.16171000    4.84557000      0.148855    0.02509600   -0.90477900
Ge    8.63274000   20.06706000   16.21755000      0.536884   -0.32845800   -0.39922900
Ge   14.55371000    1.58272000    6.21452000     -0.232428    0.77982700    0.27491200
Ge   12.33685000    3.26217000   15.38088000      1.182703    0.47376300    0.29151700
Ge   15.30509000    8.36588000    4.70911000      2.342471    0.12490500    0.73913800
Ge   15.51507000    8.94175000   13.77293000      0.388128    2.57723600   -0.65184400
Ge   16.23712000   13.85807000    3.36472000      0.429066    0.15080500   -0.20486600
Ge   13.83887000   16.01188000   16.77811000      1.111450    1.34446200   -1.94875700
Ge   13.34197000   19.05384000    0.51001000     -1.796665    0.49408900    0.38860700
Ge   10.81813000   21.56904000   19.13561000     -0.259520   -0.20136900   -0.20574500
Ge   22.65205000    4.16139000    4.92628000     -0.438364   -0.26455000   -0.24122200
Ge   21.21174000    2.44103000   14.30593000      1.459043    0.28893800    0.00945200
Ge   22.31839000    9.76015000    6.42540000      0.274750   -0.27976000   -0.82476000
Ge   19.50626000    9.67031000   13.76754000     -0.344454    0.84528400   -0.27694200
Ge   22.03092000   16.68770000    2.27662000      0.129064   -0.81680200    0.38979100
Ge   19.40744000   15.85677000   14.76930000      0.246073   -0.51587100    0.21201200
Ge   20.23181000   19.67180000    4.11958000      1.053534    1.07315800   -0.08606000
Ge   21.29018000    0.38834000   16.96279000      1.172720   -0.11185000    0.15329400
Ge    6.13879000    4.74205000    5.65761000      0.305524   -2.11092100   -1.08497700
Ge    4.28317000    2.02748000   14.31472000      0.074456   -0.82722800    0.57671100
Ge    4.61951000   12.01015000    3.12452000      0.144477    0.07818100    0.92757100
Ge    7.61470000    8.33742000   13.17248000     -0.572227    0.09096800    0.66091200
Ge    6.21580000   16.61390000    0.89087000      0.508896    0.69258900   -1.01434900
Ge    2.81106000   13.56622000   11.41204000      0.738564    0.49103000   -0.33089400
Ge    5.85691000   22.63617000    6.43961000     -1.153907   -0.75034200    0.07195900
Ge    6.81287000   20.01478000   12.71801000     -0.620230    0.61280600   -0.16418600
Ge   15.21615000    4.55366000    3.96463000      1.006020    0.55413700   -0.75647100
Ge   12.53974000    0.52391000   12.42113000      0.449127   -0.21805000    0.43525900
Ge   11.44989000    8.19946000    0.14097000      0.366738    0.10458800    0.51682400
Ge   12.14389000    9.01698000   13.90928000     -0.123163   -0.48929500    0.05827200
Ge   10.78232000   14.15567000    1.56054000     -0.065112   -0.35627500   -0.25637500
Ge    7.89515000   16.36095000   10.43824000      0.094794    1.19216700    0.84983900
Ge   13.06289000    0.37462000    1.78305000     -0.389179   -0.30904500    0.04859400
Ge   10.74041000   21.52782000   13.10531000      0.409726   -0.64323000   -0.68885400
Ge   23.47656000    2.39643000   18.47018000     -0.009525    0.71248900   -0.52303900
Ge   12.21651000    5.16972000   11.31730000      0.089457   -0.00739400   -0.12083100
Ge   17.58649000    7.95333000   19.26879000      0.983036   -0.08619800   -0.06028500
Ge   13.37572000    7.54105000    8.59337000     -0.295086   -1.35498000    0.65333300
Ge   19.70449000   12.66104000    2.83130000      0.073083    0.03750900   -0.32080500
Ge   16.39561000   14.69088000   10.16224000     -1.252728   -0.57406700   -0.26290900
Ge   16.73705000   21.64409000    3.50705000      0.830972    0.24756300   -0.49079300
Ge   17.72966000   21.43661000   11.67160000     -0.134034   -0.05305200    1.08459300
Ge    0.13298000    0.81078000    2.77259000     -0.401376   -0.14060500    0.30436400
Ge   22.89867000    2.06280000   10.24387000      0.745113   -0.93005100    1.07882700
Ge   22.77300000    9.19978000    2.78211000      0.579146    0.14895200    0.44960900
Ge   22.05352000    9.44865000   11.89063000      0.247586   -0.85041700    0.11394800
Ge    0.40896000   13.48137000    4.26181000      0.037437    0.94785800   -0.24960600
Ge    0.17383000   15.84788000   12.09618000      0.048846    0.68730900   -1.49535800
Ge    0.58025000   21.09176000    3.79811000     -0.785966    0.34999400    0.51307400
Ge   21.60271000   18.73809000   13.10650000      0.189864   -0.77575000    0.24288000
Se    2.02940000    0.33965000   19.63222000     -0.349773   -0.28417200   -0.07084600
Se    1.62625000    2.32797000    9.71466000     -0.421504   -0.23027300    0.51089800
Se    1.04900000    7.54516000    1.81603000      0.102785   -0.61992300    0.87341000
Se    0.46662000    7.58343000   10.99717000      0.202403   -0.07690400    0.19843400
Se    1.06071000   11.15974000    0.43757000      0.943150    0.36334400    0.80159500
Se    3.19425000   13.86160000    8.84821000     -0.522879    0.39901700    0.19316900
Se    2.95663000   21.08801000    3.79617000      0.167815   -0.32885700   -0.29774600
Se    0.21491000   19.01037000   12.18676000      0.202413    0.18941800   -0.58092100
Se    4.65861000    1.82588000    2.96111000      1.120021    0.16260600   -0.25618100
Se    5.85579000    1.97404000   12.22433000      0.175453    0.05868100    0.17643600
Se    8.03444000    4.87055000    3.35525000      0.563153   -0.48431800    0.71188700
Se    8.18887000    8.81927000   10.90843000      0.376554   -0.17419600   -1.17512500
Se    7.85229000   11.52854000    0.51875000      0.306943    0.87571900   -1.08418800
Se    6.62715000   14.56709000   11.35915000     -0.013927   -0.05540100   -0.10132500
Se    7.85357000   21.86906000    2.49165000      0.659680   -1.02770300   -0.64521700
Se    8.75425000   20.76115000   11.36263000      0.090665   -0.29079200    0.14074200
Se   14.66159000    1.09222000    0.05596000     -0.010796    0.06965400    0.01214400
Se   14.00819000    2.65396000   11.56634000     -0.268110   -0.10718500   -0.06665700
Se   11.84149000    7.54543000   17.64126000     -0.092664   -0.40413800   -0.92073100
Se    9.79711000   10.16613000    8.28678000     -0.984960   -0.33996700    0.38086200
Se   13.35392000   13.75137000    1.15805000     -0.178421    0.57248200   -0.64529500
Se   13.94501000    9.36090000   10.02794000      1.295548    0.90917700    0.52904000
Se   15.58614000   17.35543000    1.87152000      0.855328   -0.01877900    0.72436800
Se   12.15701000   19.08481000   11.08065000      0.747549   -0.86151100    0.09508700
Se   17.79885000    4.02168000    4.60905000     -0.192069   -0.55882500   -0.28214500
Se   14.42541000    4.30789000   13.28494000     -1.158171    0.57971900   -0.17795700
Se   17.61016000    5.12950000   16.79404000     -1.325311    1.17917500    0.18795300
Se   18.50451000    4.47773000   14.03017000      0.628700    0.19424000   -0.71995600
Se   19.23249000   10.11719000    0.24333000      0.086209   -0.10486200    0.67068500
Se   16.92749000   16.61012000    8.86960000      0.444809    0.90752900   -0.71637600
Se   20.38663000   17.92437000    0.56411000     -0.667434   -0.11185100    0.10075200
Se   19.91651000   20.10509000   11.72070000     -0.069407    0.10690700   -0.92235800
Se    2.15731000    1.76259000    3.87702000     -0.115176   -2.00448300    0.77600200
Se    4.05938000    5.80354000   13.91073000     -1.434808   -0.19380100    1.00155100
Se    5.62525000   12.18687000    0.91712000     -0.159145    0.02527300   -1.17698700
Se    4.58866000   11.85487000   11.09219000     -0.029073   -0.67152200   -0.05737100
Se    4.33949000   15.54612000    1.46634000     -0.879108   -0.63994400    0.09889000
Se    3.52739000   16.31259000   11.71263000     -0.636771    0.03013200   -0.51908600
Se    5.42971000   23.12878000   19.45049000     -0.045573   -0.25030800    0.11420900
Se    5.00642000   21.82783000   11.71742000      0.706448   -0.17444900    0.11504200
Se   12.75361000    5.67704000    0.38363000     -0.553435   -0.25572100    0.41580900
Se    8.61075000    2.46166000   10.33718000     -0.595026    0.27304900   -0.45541100
Se   10.86193000   10.85951000    0.16250000     -0.183781   -0.01127700    0.31037800
Se   11.38867000   11.66549000   11.61435000     -0.697613    0.31103000   -1.17969600
Se   11.39940000   16.43740000    2.25907000      0.181816    0.62122300    0.60257600
Se   11.53644000   15.08580000   13.66418000      0.285765    0.26447100   -0.50507500
Se   12.70657000   23.28811000   18.18566000      0.039922    0.11844100    0.36502300
Se    9.37055000   23.48305000   12.74048000      0.204954    1.02178800    0.87485400
Se   13.18028000    3.46622000   17.80226000     -0.990688    0.23188800   -0.30083800
Se   17.91537000    7.62233000    9.20929000      0.288891   -0.19337800    0.21348100
Se   15.43115000    6.94961000   19.72612000     -1.325327    1.01932000    0.27303600
Se   18.04735000   13.84909000   12.15685000     -0.250447    0.51633400   -0.99390300
Se   18.61833000   14.93221000    2.24953000      0.804468    0.53103800    0.51441100
Se   13.99238000   13.54000000    9.17182000      0.722192    0.24533700   -0.02688000
Se   17.90227000   22.58661000    1.28635000     -1.298703    0.56934300   -0.73666100
Se   16.24198000   21.45004000    9.89558000     -0.312821    0.32043300   -0.74295100
Se   23.57939000    2.82555000    1.51630000     -0.681801    0.47163700   -0.58121800
Se   21.67190000    4.04689000   10.35623000     -0.310869    0.95941300    0.39882900
Se   21.17908000    5.53003000    3.50068000      0.268289   -0.25414400   -0.55125500
Se   21.36972000   11.79353000   11.52281000      0.260362    0.80334900   -0.25373000
Se   22.61849000   13.97092000    1.99840000      0.175285    0.43824100   -0.21445300
Se   21.45411000   16.22164000   11.95211000     -0.267094    0.00353700    0.73314900
Se   23.00491000   22.24360000    2.16436000      0.179124    0.53345200   -1.25775600
Se   21.65737000   22.15746000   15.47971000     -0.477539    0.00699100    0.31000300
Se    4.98440000    4.96001000    9.84509000     -0.946027   -0.72486600    0.22611400
Se    4.20367000    5.49265000   17.20954000     -1.484774   -1.15069600   -0.11060700
Se    4.47442000   10.57277000    8.97098000     -0.262514    0.02050200   -0.47403100
Se    3.92359000    9.18847000   16.91367000      0.512250    0.23502600    0.40088800
Se    5.19996000   20.04406000    6.37454000      0.366147   -0.36892000   -0.62646200
Se   22.91364000   15.92313000   19.16009000      0.662304    0.93243100   -0.15347800
Se    1.53321000   22.49690000   12.08883000     -0.811775   -0.19576800   -0.69594900
Se    2.55779000   20.92769000   17.75319000      0.167306   -0.86259800   -1.09969500
Se    7.64697000    3.38090000    7.03028000      0.118859    0.19652400   -0.19543500
Se    5.48530000    4.80722000    0.45689000     -0.102429   -0.05734000    0.55343500
Se    7.46575000   10.18994000    7.08462000      0.250017   -0.27996000    0.90451500
Se    4.86125000   10.02777000   19.04413000     -0.031411    0.12043300    0.24646800
Se    6.05090000   18.29804000    9.92136000      0.580139   -0.45741600   -0.63863100
Se    6.10524000   17.50598000   17.74011000     -1.013995    0.07364400    0.74689100
Se    8.86675000   19.43683000    6.93445000      0.625463   -1.93543500   -0.63378900
Se    8.20531000    2.04629000    1.00431000      0.570145   -0.25082500    1.02297200
Se   13.46699000    2.37055000    8.61905000     -0.415495   -0.25706200   -0.14652900
Se    8.61197000    4.32730000   18.72326000     -0.236675   -0.39610100    0.01078600
Se   11.13797000    7.24437000   10.37734000     -0.071280    0.01532400   -0.98775400
Se   16.06476000   13.45018000   17.74552000     -0.459061    0.34476900   -1.12237000
Se   13.20931000   16.42235000    8.05998000     -0.191788    0.35165900    0.33528200
Se   15.79343000   17.08396000   17.81658000      0.319988   -2.34754300    0.39231000
Se   14.40714000   23.11072000    7.43054000     -0.149905   -0.62081500   -0.49369500
Se   17.31437000    1.56548000   17.13458000     -0.845834   -1.16017900   -0.89143500
Se   17.45261000    3.29176000   10.95594000     -0.066444    1.22652200    0.23746900
Se   21.02226000    3.71271000   17.84466000     -1.236400   -2.79279100    1.79736900
Se   18.81597000   10.36637000   10.43900000      0.185852   -0.13143600   -0.51793700
Se   18.87626000   10.26948000   16.13122000      0.329403    0.03719500    0.31144400
Se   15.30469000   17.02204000   10.94243000      0.046271   -0.53470200    1.33968200
Se   20.02275000   14.43810000   18.25335000     -1.070073   -0.74128800    0.08331800
Se   19.54855000   21.50727000    8.49055000     -0.003175   -0.00523800    0.26799100
Se   18.76904000   18.89667000    2.25817000      0.579430    0.03704500   -1.00466700
Se    5.32322000   22.96979000    8.75935000     -0.137278    1.41426800    1.04036200
Se    3.11915000    2.42352000   19.37099000      0.386101    1.23040900    0.49610500
Se    7.47786000    6.68778000    9.83114000      0.514077    0.90410200    0.65322500
Se    4.48004000    7.45859000    0.71788000      1.314226    0.04125200   -0.48603000
Se    2.98384000   16.15764000    4.42174000      0.443966    1.30274200    0.32041000
Se    6.22291000   12.84228000   17.21132000      0.614752   -0.07489000    0.39389700
Se    2.35361000   20.95952000    8.57538000     -1.598352   -0.68977500   -0.55671500
Se    0.55116000   19.25465000    0.38836000     -0.044585    0.13629400    0.45279700
Se   10.62260000    0.04111000    7.60273000     -0.692793   -0.04611600    0.38982900
Se   11.79374000    3.63464000    1.75784000     -0.242865    0.20902600   -0.04610500
Se   12.23424000    4.43939000    8.55826000     -0.582215   -0.85069700    0.17018800
Se    8.76525000    7.62234000    1.48625000     -0.224890    0.19208200   -0.44410700
Se   11.16873000   13.59651000    7.66338000     -0.139074   -0.81755400   -0.44380500
Se    8.96983000   15.02432000   19.44963000      0.421789    0.10171800    0.27868600
Se   12.17763000   22.08384000   10.38083000      0.816948   -1.06860400    0.48240100
Se   12.22854000   14.66705000   17.64272000     -1.023008    0.07612900    0.17141700
Se   18.45632000    0.76850000    8.72261000     -1.252022    0.27541400   -0.17657300
Se   16.74655000    4.21064000    0.72534000     -1.410192   -0.03600300   -0.58814900
Se   16.16122000    6.26396000    8.29834000      0.611441    0.72119900   -1.11541200
Se   15.24685000   10.42262000   15.72129000      0.756154   -1.01423100    0.73510700
Se   14.78569000   11.53739000    8.21305000      0.223285    0.40877100   -0.40193900
Se   16.56740000   12.69959000    0.46289000      0.377351    0.49067400   -0.61873200
Se   15.04743000   18.85516000    5.18174000     -0.940634   -1.06257500   -0.30956900
Se   18.31875000   21.35593000   17.73241000      0.354273   -0.04543800    0.44330100
Se   22.44001000    0.28269000    8.60198000      0.789997    0.09247500   -0.57899300
Se   23.36201000    1.66166000   15.87027000     -0.994010   -0.69693400   -0.00901400
Se   21.25459000    7.59958000    9.34565000      0.794337   -0.32385700    1.15999700
Se   23.33431000    6.37335000   18.54438000     -0.058738    0.03280200    0.17732500
Se    0.72549000   10.68423000    7.54307000     -0.233867    0.84235500    0.32164700
Se   21.07696000    8.73446000   19.33792000      0.475028   -0.02362900   -0.08408500
Se   21.20609000   17.94979000    8.75122000      0.548359   -0.35375300    0.40790800
Se   19.45378000   17.25937000   17.09605000      0.204078    0.01282900   -0.18733400
Se    2.26556000   23.68945000   10.24486000      0.290172    0.10371400   -0.45700600
Se    2.73093000   23.42324000   14.52224000      0.437243    0.52269600    0.17487700
Se    2.35191000    7.30800000    8.13704000     -0.261926    0.25892400    0.70194800
Se    2.06114000    8.15227000   17.94796000     -1.222814   -0.20237200   -0.39741600
Se    0.93408000   16.02582000    9.27614000     -0.389993    0.05692500    0.31684700
Se    2.27625000   12.73684000   17.00524000      0.142558    0.65688200   -0.02215700
Se    0.59201000   20.04969000    6.84183000      1.464621   -0.04299500    0.61341500
Se   23.15372000   19.24594000   16.50266000      0.382827    0.10199400    0.77520600
Se    7.56059000   23.38145000    5.00621000      0.832425    0.69456500    0.04095800
Se    7.07703000    2.35310000   17.76363000     -0.209840   -0.54571000    0.55526100
Se   10.31388000    6.30871000    6.08681000     -1.912382   -0.31125700   -0.27009500
Se    7.35442000    7.47433000   16.52203000      0.087858   -0.06385400    0.06253900
Se    7.41139000   14.14047000    8.16537000     -0.542153   -0.07938100    0.06280800
Se    8.84081000   17.85261000   12.40630000      0.114906    0.20267000   -0.88287900
Se    6.36240000   17.69070000    4.05036000     -0.093710    0.23951600    0.03498500
Se    8.17485000   17.24374000   16.91130000      1.352297    0.35689500   -0.05480400
Se   14.32865000   21.84162000    4.58100000     -0.024563    0.24533300   -0.33210800
Se   13.61922000   23.18374000   15.64738000      0.933347    0.20668500   -0.60177400
Se   13.20558000    8.66819000    4.17284000     -1.883677    0.00834200    0.03957600
Se   10.02588000    7.55513000   14.70493000      0.742056    0.01959700   -0.77362200
Se   14.19830000   12.79314000    4.02413000     -0.356497   -0.98634800    1.01386100
Se   14.96704000   14.89667000   14.53008000     -0.298741   -0.03105100    0.79042200
Se   12.57218000   18.56018000    5.30447000      0.995554   -0.07998100   -0.18517000
Se   15.38200000   19.65502000   19.43601000      1.107727    0.90129300   -0.24413700
Se   18.72565000    1.45171000    3.82531000      0.332768   -0.26177000    0.51013400
Se   19.13525000    0.50169000   18.19021000      0.440115    0.04776600    0.42084900
Se   19.94487000    6.63624000    6.22033000     -0.071424   -0.99142000   -2.36103900
Se   20.23525000    6.70657000   16.02031000     -1.033551   -0.12033500   -0.96444900
Se   19.39768000   12.01771000    5.30172000      0.020604    0.48153900   -0.41023700
Se   18.47083000   12.83738000   14.11703000      0.030569   -0.16003600    1.55718200
Se   19.09950000   18.82374000    5.97668000     -0.757568   -0.28610500    0.54518300
Se   19.81071000   20.53595000   14.93829000      1.130242    0.90041500   -1.02828300
Se    5.67672000    6.63782000    6.73995000      0.215155    2.02189000    0.48517400
Se    1.59786000    5.14079000   16.84146000      1.458377    0.01557400   -0.44667900
Se    3.83767000    9.97279000    5.26164000     -0.357662   -0.53223600    0.17451700
Se    3.87106000   11.56373000   13.69191000     -0.118159   -0.83593300    0.86332100
Se    3.24707000   13.95842000    4.87354000     -0.259429   -0.76219300    0.04039400
Se    2.60102000   16.73560000   17.91992000      0.116035   -0.16806000    0.17189000
Se    0.28307000   22.92013000    5.38162000     -0.287648   -0.00434100    1.26018100
Se    3.85901000   21.31898000   14.16292000     -1.396857    0.78076600   -1.81089200
Se   12.32447000    1.38292000    4.94776000     -0.097691   -0.24481100    0.22712300
Se    8.32004000    4.97027000   16.46936000      0.116226    1.09358800   -0.30310400
Se   11.27779000   11.07609000    6.89095000      0.407704    1.21278700   -0.43356200
Se   10.68705000   11.84991000   17.25610000     -0.513906    0.03022700   -0.13226200
Se   10.11936000   15.76145000    9.66919000      0.091016   -0.62787500    0.00869200
Se   11.48372000   19.22739000   18.25963000      0.008181   -0.00150300    1.14351800
Se   11.14668000   21.45028000    3.98233000     -0.894053   -0.72292500    0.01649300
Se    8.02694000   21.12867000   18.32429000      1.310544   -0.14527700    0.68732500
Se   13.62233000    4.64061000    5.70011000     -0.531258    0.45402200    0.51393000
Se   15.07357000    5.48804000   16.85258000      0.923965   -1.06622000    0.06406200
Se   16.98203000    9.96047000    5.54885000     -0.461895   -0.66005100   -0.33718000
Se   17.61397000    8.13390000   13.24625000     -0.160035   -0.73600400   -0.23371400
Se   17.42305000   13.68987000    5.65563000     -0.106283   -0.20198100    0.39778900
Se   12.83063000   18.29555000   15.85027000      0.270694   -1.37676900    0.16562100
Se   16.50021000    0.67866000    4.15371000     -0.197972   -0.90919100    0.11762800
Se   16.44995000    3.30575000   13.66584000      1.589930   -1.26707300    0.48937600
Se   22.33404000    4.22955000    7.28501000      0.375789    0.35959000    0.48561200
Se   22.71267000    4.73483000   14.49344000     -0.377628   -0.15013400    0.36332600
Se   19.59798000   11.17575000    8.17665000     -0.237134   -0.61428000    0.22106900
Se   22.02420000   12.96210000   15.59116000     -0.434279    0.14028000   -0.46049900
Se   20.56291000   14.72172000    7.07398000     -0.218911    0.32430900    0.25475500
Se   22.47845000   17.20198000   15.73449000     -0.136282   -0.35028700   -1.06284700
Se   21.62469000   21.30729000    7.30030000      0.579431   -0.19598200   -0.53797700
Se   22.53903000    0.28337000   19.16699000     -1.005564   -0.64825400   -0.44861100
Se    4.09710000    3.10785000    6.08901000      0.869383   -0.99414900   -0.88057400
Se    6.41018000    0.59746000   15.58102000     -0.759844    0.12711400    0.27610600
Se    2.80058000    5.16182000    3.24740000      1.122671    1.25053100   -0.12090600
Se    4.93053000    8.36488000   11.89789000     -0.697852    0.51408600    0.46934200
Se    2.89069000   10.41119000    2.28757000     -1.344184    0.20785600    0.04264000
Se    3.83022000   14.80783000   14.34955000      0.160401    0.92508900    0.17893600
Se    4.73038000   19.09401000    0.75019000      0.444921   -1.20382000   -0.38578400
Se    4.70461000   18.23040000   12.99086000      0.465036    0.02251500   -0.62167200
Se   10.25695000    1.68819000    2.55164000     -0.913774   -0.00666100   -0.26894700
Se   10.76336000    1.58083000   14.75661000     -0.795056   -0.76649700    0.11156300
Se   10.38501000   10.81342000    2.65122000      0.381516   -0.32558900   -0.31024900
Se    8.94145000    9.55737000   16.75856000      0.013381   -1.25547400    1.72549600
Se    8.14915000   12.91385000    4.78503000      0.211759   -0.36791800   -0.36630300
Se   11.48423000   11.56312000   13.89489000     -0.444854    0.57852900    1.13222100
Se   10.27074000   20.90017000    1.72969000     -0.968779   -0.11116200   -0.91663900
Se   10.96023000   21.31016000   15.72399000     -0.791310    0.40744300    0.31861000
Se   18.33427000    3.33370000    8.72674000     -0.431585   -0.64152100   -1.05509300
Se   14.52246000    1.73089000   15.72855000     -0.491905   -0.40236000   -0.13287300
Se   16.88630000    6.63247000    4.62795000     -0.792936   -0.17825300   -0.35123400
Se   14.02468000    7.28645000   14.34207000     -1.065848   -0.84056100   -0.21428400
Se   17.46948000   11.45017000    2.18571000      0.078546   -0.45424200    1.46744700
Se   16.82653000   18.52977000   14.45211000      0.242186    0.04492100    0.75920000
Se   15.88121000   16.57865000    4.09845000     -0.265837    0.60573800    0.47972900
Se   16.09913000   20.57080000   13.45607000     -0.130686    0.29469500   -0.41789300
Se   22.32201000    0.98023000    4.75421000      0.412653    0.15026700   -0.05679200
Se   22.95063000    1.00589000   12.62610000     -0.735888    0.81364500   -0.59264600
Se    0.58170000    8.39319000    4.85500000     -1.386397   -0.10016600    0.03974900
Se   21.07005000    7.83841000   13.82175000      0.495461    0.15377300   -0.65101900
Se   23.33050000   15.81572000    5.79981000     -0.693601   -0.86765800   -0.50022900
Se    0.30583000   12.96545000   14.39943000      0.814318   -0.26938100    0.43902100
Se   22.97789000   19.10306000    3.77668000     -0.730623   -0.60496100    0.31555700
Se   21.71425000   21.84121000   12.02590000     -0.122574   -0.43045500    0.44522400
Se    3.08119000    4.09818000    7.75965000     -0.586416    0.99686800    0.84352000
Se    2.24630000    4.20733000   14.31845000      0.203262    0.48554700   -0.49856500
Se   21.69371000   11.10678000    4.22119000      0.556255   -0.09109800    0.98333500
Se    1.01241000    9.26086000   12.61583000      0.010748    0.81740900    0.64217200
Se    1.01533000   15.36331000    2.21501000     -0.316964   -0.66791700    0.28563500
Se    0.92014000   17.10101000   14.03910000     -0.077358   -0.40957800    0.94176200
Se    3.70407000   21.46631000    1.43001000      0.975936    0.85905500    1.20830200
Se    4.86429000   18.54163000   15.39762000     -0.108789   -0.52866600    0.51661300
Se   10.50626000    4.42139000    3.90698000     -0.510581    0.45352900   -0.24900500
Se    7.12942000    3.72745000   13.42593000     -0.926877   -0.78388600    0.22421900
Se    6.49187000    9.99496000    3.79009000      0.064275   -0.33350800   -0.03726000
Se    7.17384000   10.95720000   13.83896000     -0.345812   -0.45994000   -0.80301100
Se    8.01833000   16.85452000    2.54788000      0.072445   -0.07893600    0.00971900
Se    9.44976000   16.02486000   13.73234000     -0.392911   -0.76856200    1.09955600
Se    8.14741000   20.95008000    8.35800000     -0.802202    1.45147900    1.21951600
Se    7.16295000   21.61358000   14.92998000      0.407187   -0.34318100   -0.65677700
Se   15.06013000    1.80611000    2.51662000      0.187534    0.50526000   -0.49428800
Se   11.11784000    5.49758000   13.59633000     -0.563666    0.27623300    0.54460100
Se   14.09805000    9.03701000   19.19394000      0.431565   -0.46231400    0.59510800
Se   14.40808000   10.99653000   12.77932000      0.445276   -1.06130700   -0.42424600
Se    9.68020000   16.49134000    5.31538000     -0.759992   -0.52366500    0.82164500
Se   13.14672000   17.65304000   12.76594000     -0.062235   -0.08551500   -0.61705500
Se   14.18059000   21.74457000    2.01806000      0.129196   -0.15722300    0.88444100
Se   14.48854000   22.79393000   13.18665000     -0.561229    0.46839900    0.41847700
Se   18.10214000    6.08469000    1.17746000      0.653509    0.57336100   -0.10552700
Se   14.52630000    5.54429000    9.77506000     -0.566057    0.39166000    0.30980600
Se   20.79886000    7.88971000    2.98154000     -0.718772   -0.69619600    0.35822600
Se    0.19965000   13.42255000   11.85643000     -0.636423   -0.72815900   -0.02996700
Se   20.18819000   15.68300000    4.10065000     -0.220068   -0.11397600   -0.93489500
Se   17.96437000   16.91377000   13.04271000      0.280357   -0.02445000    0.06958700
Se   19.21755000   22.54569000    4.22372000      0.415847   -0.67989900    0.26852500
Se   18.42453000   23.48354000   12.60082000     -0.380721    0.06431500    0.66740100
