384
23.69824000 23.69824000 19.89960000
Ge    5.19025000    6.62214000   12.71210000     -0.725484    0.16376600    0.52730500
Ge    6.61508000    5.36713000    3.31721000     -0.365226   -0.80106300   -0.02028900
Ge    1.94187000   13.08304000    6.75402000     -0.911426    0.08094100    0.29454900
Ge    8.81179000   14.57861000   15.88711000      0.122684    0.08269400    0.16830900
Ge    5.07308000   14.90015000    9.90655000      0.328615    1.20362200   -0.35159100
Ge    9.48893000   18.53380000   19.69738000     -0.462950   -0.81322500    0.12779600
Ge    8.11335000   22.64074000   11.40579000      0.465051   -0.41311700   -0.28910500
Ge    5.64785000    0.82431000    0.25377000      0.410005    0.27656300    0.36543900
Ge    9.06481000    5.56696000   10.89086000      1.124052   -1.02663300    0.22099100
Ge   11.15228000    6.13675000   19.64857000     -0.337114   -0.24802500   -1.06706700
Ge   10.47791000    8.59179000   10.26030000     -0.058261    0.14206300    0.43784800
Ge   13.56545000   12.41138000   19.48199000      0.218786   -0.67801000    0.13885700
Ge   11.63350000   18.31122000    8.73045000     -2.049517   -0.31918800    1.39153100
Ge   12.64989000   15.99133000    0.57349000      0.587242   -0.39262800    0.78806400
Ge   11.10491000   23.23483000    9.24154000     -0.031033   -0.02925500   -0.03367300
Ge   16.28945000   22.70773000   19.09627000      0.302507   -1.23607300    0.84855600
Ge   18.73530000    5.22096000   11.73258000      0.139330    0.55074000    0.22745600
Ge   19.89536000    8.82632000   17.21588000      0.186182    0.50647700    0.23860000
Ge   19.64494000   11.48518000    9.95845000     -0.118418    0.35349900    0.23875600
Ge   18.08130000   11.29052000   18.05867000      0.306225    1.24023600   -0.13752800
Ge   14.72617000   20.01991000    9.10797000      0.912499   -0.35276500    0.09000400
Ge   18.10877000   15.57387000   19.43260000     -0.426930   -0.76426400    0.10686700
Ge   19.69062000    1.94382000   12.64644000     -0.457054   -0.18400800    0.18173700
Ge   20.66434000    4.11842000    0.97457000     -0.956038    0.12433100    0.50400500
Ge   23.11270000    6.32050000    8.78647000      1.200885   -0.81126900   -0.54935400
Ge    2.24397000    3.14578000    4.23882000     -0.782437    0.20888900    0.16145700
Ge    1.62126000    9.98246000    9.66805000      0.283989    0.31107600    0.16488500
Ge    0.45622000    9.44270000    0.20678000     -0.075680    1.48634800   -0.86380300
Ge   21.13459000   15.27963000    9.04619000      0.108423    0.61024800   -1.10959800
Ge    0.94318000   14.19446000   19.55708000     -0.111314   -0.25340300   -1.16005800
Ge   18.86365000    1.57663000    9.70425000     -0.389383   -0.07524900   -0.29448800
Ge    0.66683000   21.06501000   19.86298000     -0.024252    0.50845700    0.56806100
Ge    4.92638000    8.04254000    8.23230000      0.063693    0.31330000    1.09112700
Ge    1.46476000    6.58519000   19.02880000      0.845656    0.15763500   -0.30825900
Ge    1.89217000    9.84023000    5.97909000     -0.289244   -0.66512200   -0.41005500
Ge    3.49892000   12.53670000   16.39457000      0.582040   -0.08602000   -0.19653000
Ge    5.88963000   17.46818000    3.53128000      0.316537    1.81239000    0.84148500
Ge    0.29867000   17.79198000   18.45802000     -0.984925   -0.45439300   -1.34823000
Ge    4.63970000   20.52986000    8.88109000      0.188848   -0.43222400    0.01225400
Ge    4.29785000   22.76696000   17.94523000     -0.809748    0.15078200    0.71892700
Ge    9.51580000    2.63215000    7.34914000      0.480626   -0.20104300    0.42471800
Ge    6.78978000    8.41370000   18.92768000      0.376105   -0.21052700   -0.52206500
Ge    5.67263000   12.72041000    6.65142000      1.699809    1.24088300   -1.46676000
Ge    8.19434000    8.81448000    2.01641000      0.199497    0.01820000   -0.16730200
Ge    7.86997000   18.32210000    7.35840000      0.568356    0.40308500   -1.61546000
Ge    4.17869000   19.31365000   19.10710000      0.492688    0.29853500    0.22588500
Ge   10.91785000   22.28976000    6.23658000      0.096759    0.71401700   -0.49464400
Ge   10.51751000    2.15846000   17.55839000     -2.051977    1.58569700    0.69322300
Ge   13.34491000    6.68095000    5.94728000     -0.473376   -0.01420600   -0.48767000
Ge   13.69493000    8.36142000   18.78271000     -0.413505   -0.78967900   -0.71928000
Ge   15.60632000   12.69826000    6.36059000      1.236825    0.17210300    0.29493900
Ge   16.98107000   15.82761000   16.57447000     -1.000119   -0.43907200   -0.57910500
Ge   12.78771000   16.20678000    5.10283000     -0.931013    0.52273600   -0.59794700
Ge   15.30053000   18.25706000   16.64691000     -0.532574    0.08402600   -0.35255300
Ge   15.16016000    0.34637000   10.06357000      0.429487    0.54770100    0.14541300
Ge   16.48594000    4.06808000   18.47039000     -0.174162    0.47418600   -0.24852100
Ge   20.25510000    5.92786000    7.57123000      0.096349   -0.47490500   -1.48217400
Ge   21.76024000    5.67952000   16.66523000      1.804579   -0.92412100   -0.54637700
Ge   19.49486000    9.16891000    7.93520000      0.497034    0.81952800    0.61704600
Ge   21.84772000   13.38685000   17.93622000     -0.077626   -0.74386000    2.08165000
Ge   19.47112000   18.04279000    7.05654000     -0.166224   -0.57735600    0.54978000
Ge   20.56899000   19.33893000   16.30753000     -0.064396   -0.79739100   -0.21792400
Ge   19.78036000    0.83526000    5.31524000     -0.093657   -0.48249300   -0.11262400
Ge   20.47467000   20.89047000    1.10480000     -0.029120    0.77927800   -0.42847600
Ge    5.55948000    3.25708000   10.51196000      0.109725    0.04224900    0.17748500
Ge    4.65012000    3.41197000   17.20869000     -0.189698    0.46237900   -0.95713400
Ge    2.88690000    6.31952000    5.34604000      1.204629    1.65916800   -1.92211300
Ge    2.88412000    9.80697000   12.78464000      1.420571    0.14455000   -0.60444800
Ge    2.87677000   17.35698000    6.12835000     -2.034920    0.07666300    0.20461400
Ge    1.72740000   14.58926000   15.96577000      0.146373    0.33452700   -0.38163900
Ge   22.95282000   20.04761000    9.97215000      1.275224   -0.48968800   -0.54712200
Ge    3.39213000   21.64379000   15.18686000      0.061090    0.14462800   -1.28790400
Ge   10.30240000    3.62739000    2.36375000     -1.174452   -0.76193800   -0.07463300
Ge    8.47427000    2.21620000   15.70417000      0.328174    0.84007000    0.14421100
Ge    9.26392000   10.61185000    5.13949000     -0.468628    0.31261900   -0.60043100
Ge    7.34494000   10.67560000   15.43484000     -0.364190   -0.66385000    1.53300300
Ge    9.17062000   14.49860000    6.91222000      0.803590   -0.32058800   -0.92003900
Ge   15.06116000   11.35761000   16.32991000      0.555664    0.32274600    0.03878400
Ge    7.55948000   21.66169000    4.63391000     -0.400892   -0.44736600   -0.57072100
Ge    8.32433000   19.86753000   15.64122000      1.849984   -0.24684000   -0.19539300
Ge   14.66474000    2.32453000    6.68054000      0.035271   -1.06428700    0.64328700
Ge   12.73847000    2.58091000   15.83519000     -0.089674    0.56443200   -0.56509700
Ge   15.50563000    9.61585000    4.97611000     -0.128129   -0.20156300   -1.31377800
Ge   15.62019000    7.94069000   15.51422000     -0.012650   -0.72848200    0.16072400
Ge   15.75561000   14.05768000    3.51098000      0.089442   -0.30377200   -0.04625100
Ge   12.81976000   15.59510000   15.48774000      1.134042    0.75583300    0.07623800
Ge   13.79979000   19.02532000    0.11884000      1.175691    0.11092200    0.13656800
Ge   10.06311000   21.59644000    0.30735000     -0.168191   -0.28418400    0.50335400
Ge   23.19977000    4.26719000    3.82901000     -0.008096   -0.43571100    0.46241000
Ge   23.19277000    2.60188000   16.01795000      0.169883   -0.36697900   -0.00817000
Ge   22.70079000    9.28171000    7.11423000     -0.633907   -0.49977400   -0.67691800
Ge   20.17522000    9.85237000   13.40333000      0.847487   -0.54200100    1.73177300
Ge   23.08081000   16.22002000    5.27579000     -1.003830   -0.06064600   -0.51304800
Ge   19.41184000   13.92266000   13.49677000      0.173726    0.08607900    0.10486300
Ge   20.31009000   20.68154000    5.98484000      0.186386    0.25137300   -0.75109700
Ge   20.88511000   23.23807000   17.84562000     -0.527525    0.44920400   -0.64926400
Ge    6.31310000    4.50048000    5.94106000     -0.794650    0.59934500   -2.12214600
Ge    3.98231000    1.69839000   13.79601000     -1.169955    0.94882200    0.61828000
Ge    5.26577000   11.10162000    3.53567000      0.033433   -0.05652100   -0.78869500
Ge    7.55765000    8.66218000   12.86830000      0.436229   -0.38464600   -0.33734500
Ge    5.41848000   15.02880000    0.40426000     -0.780640    0.84643200   -0.40753100
Ge    4.40683000   12.74041000   12.96579000     -0.246927    0.20026300   -1.19670900
Ge    4.64184000   22.61172000    6.09123000     -0.192835   -0.28715900    0.01600100
Ge    6.21358000   21.04231000   13.33781000     -0.244903    0.56222000   -0.03824200
Ge   15.04071000    6.17858000    2.53712000     -0.550858   -0.62557900   -1.10875800
Ge   13.22536000    0.14589000   13.21531000      0.361384    0.32470200    0.19962900
Ge   10.76126000   10.29218000   19.65100000      0.136965   -1.13452300    0.21531800
Ge   14.05053000    9.03714000   12.75486000     -0.590096   -0.48811500   -0.25380300
Ge   10.71194000   13.74543000    2.50105000      0.461590   -0.92187000    0.27187100
Ge    8.34393000   17.16789000   10.78581000     -0.757780    0.69777700   -0.09685200
Ge   12.54022000   22.71483000    1.16193000      0.029782    0.09921400    1.32792200
Ge   10.35155000   22.41679000   14.02393000      0.068745   -0.05515700   -0.11312600
Ge    0.45481000    1.87618000   19.08922000      0.092817   -0.16617600   -0.80008200
Ge   12.74705000    6.40177000   13.02579000      0.529825   -0.09886600    0.19133400
Ge   17.66971000    8.58383000   19.85962000     -1.816446   -0.49242500   -0.31889900
Ge   12.75740000    6.35105000    8.35211000     -0.279417    1.26116500    0.74002000
Ge   20.75476000   13.28688000    2.69519000     -0.135509    0.15271600   -0.37968900
Ge   16.14540000   17.02702000    7.92758000      0.191293   -0.41996400   -0.64603000
Ge   17.01621000   21.13319000    2.90523000      0.149951    0.18730700    0.27739200
Ge   18.83442000   21.77804000   13.37296000     -0.145360   -0.17374600    0.36055600
Ge    1.01316000    1.59336000    2.33651000     -0.581795    0.06345300    0.62488300
Ge   22.75979000    2.47022000   10.25740000      2.545661   -1.08015100    0.50224400
Ge   22.47863000   10.11445000    3.06391000      0.383015   -0.36497100   -0.52383900
Ge   22.94465000    8.95709000   13.35210000     -0.315835    0.74388400   -0.62412100
Ge    2.66685000   13.21858000    3.88685000     -0.201305    0.48402200   -0.33155700
Ge    0.21350000   16.26331000   11.65831000      0.145829   -0.39012900   -0.54063800
Ge    0.48645000   21.42606000    3.92311000     -0.449201   -1.08676900   -0.69014700
Ge   21.05245000   18.18519000   12.45770000     -2.205859   -0.30764600    0.28042500
Se    2.55545000    0.57509000   19.81377000      0.398186   -0.54445100   -0.00196300
Se    1.52993000    1.37941000    9.61036000     -0.989607    0.06320500    0.30012400
Se    0.71034000    7.43877000    1.30648000     -0.012560   -1.19512900    0.68351900
Se   23.47334000    9.03897000   11.00798000     -0.148002   -0.31935600   -1.17502400
Se   21.98968000   11.99177000    1.04034000      0.100974   -0.61050500    0.76454100
Se    1.12393000   14.12093000    8.98770000      0.458961   -0.46272300   -0.06975700
Se    2.13082000   19.64972000    3.11407000      0.292707    0.72856400    0.11869000
Se   23.31181000   18.68309000   12.14017000      1.197800    0.49334700   -0.13226500
Se    6.97676000    3.23809000    1.63077000      0.158870    0.04219000    1.11776800
Se    5.85925000    3.46313000   13.45372000      0.361392   -0.35814200   -0.90530500
Se    9.60936000    5.02613000    4.63844000     -1.248148   -1.04900500   -0.79160200
Se    7.82570000    8.99837000    9.91228000      0.311465   -0.62709800    0.74224300
Se    8.13064000   10.35813000    0.04256000      0.473137    0.31959500    0.43024900
Se    7.16538000   15.15794000   11.30070000     -0.234014   -0.68385800    0.58875900
Se    7.19689000   19.76745000    2.58721000      0.816717    0.04269400    0.28107600
Se   10.06274000   20.33376000   11.42903000     -1.114318    1.27959000    0.42913000
Se   12.90097000    0.88386000   19.64098000      0.144575    0.31918300   -0.49329600
Se   12.82175000    3.21418000   12.13031000     -1.517526   -1.78628300   -2.07623400
Se   11.21801000    8.42462000   17.60200000      0.199428    0.66710700    0.91506500
Se   10.72270000    9.73390000    6.87422000      0.144543    0.51686300    0.70930000
Se   13.30249000   13.58166000    1.71166000     -0.205274    0.73347300   -0.02884600
Se   13.09627000    8.83788000    9.30579000     -0.396235   -0.64311100   -0.71155500
Se   15.08598000   16.67188000    1.38009000     -0.333835    0.04182500    0.00468900
Se   12.46321000   18.52348000   11.25675000     -0.528250    0.59220200   -0.68600600
Se   18.98592000    3.70291000    3.73707000      0.306056   -0.23938900   -0.18647000
Se   13.84988000    4.03275000   13.84486000      1.104131    1.17043300    2.20803700
Se   15.85505000    5.08459000   16.06699000     -0.376135    0.06050500    1.11315300
Se   20.01628000    4.15607000   13.99133000      0.777604    0.16925600   -0.31082900
Se   19.89741000    9.21374000    0.10858000      1.158022    0.79350600    0.94183100
Se   16.93839000   19.52480000    7.37800000     -0.500516   -0.45924600    0.29883700
Se   19.97127000   17.04086000    0.35556000      0.470524    0.88455400    0.37274600
Se   19.41439000   19.25554000   10.87734000      1.036819    0.44066700   -0.18737900
Se    2.87476000    0.83503000    4.96648000      0.701880    0.00774300    0.02088300
Se    2.31096000    5.50265000   12.12408000      1.180464   -0.67132000   -0.73143600
Se    6.00049000   11.50853000    0.88627000     -1.084946    0.62752200    1.05409700
Se    4.79343000   12.59071000   10.47507000     -0.340738   -0.79481700    1.49610800
Se    3.89670000   13.18423000    1.10816000     -0.195199   -0.36468100    0.23874000
Se    3.40278000   16.74339000   10.94249000     -0.343887   -0.35516700    0.66093600
Se    5.73132000   21.85413000   19.81291000     -0.281794   -0.57531700   -0.02628800
Se    4.68091000   19.76058000   11.78098000     -0.212942   -0.09226500   -0.04665100
Se   11.84193000    6.54333000    2.04004000      0.425916   -0.35502500    0.55225500
Se    8.64905000    3.12559000   10.42352000     -0.705000    0.61794600    0.60695700
Se   10.69328000   12.68071000   18.89803000     -0.225749   -0.22366900    0.26108000
Se   10.75734000   10.98593000   10.96629000      0.670427    0.06903800    0.63941900
Se   10.87745000   16.10077000    2.82199000      1.273240    0.44460700    0.22024000
Se   12.10784000   14.88875000   13.18333000      0.408277   -0.09263000    0.01199700
Se   11.43987000    0.06499000   17.76593000      0.893473   -1.24998500    0.45547300
Se   10.15788000    0.79512000   11.32175000     -0.454293   -1.24632800   -0.11474500
Se   11.92278000    4.31235000   17.49456000      0.435595   -1.16905300   -0.03827200
Se   17.84125000    8.16900000    9.51348000     -0.772249   -0.60969900   -0.37626000
Se   16.78588000    9.06137000    2.25579000     -0.403577    0.11262200    0.58722000
Se   17.83491000   13.33907000   10.52888000      0.055627   -0.13349700   -0.06249800
Se   18.44750000   14.34630000    2.25223000      0.260730   -0.37046400    0.05516200
Se   13.91876000   15.27981000    8.10628000      0.233549    0.64842200   -0.27531300
Se   18.30316000   22.46451000    1.23899000     -0.629889    0.47230700   -1.19997200
Se   17.26036000    0.45437000   11.31139000     -0.731820   -0.54784200    0.20573500
Se   23.26347000    3.39717000    1.17794000      0.299783    0.11788300    0.30817600
Se   21.98119000    4.61111000   10.24783000     -0.050747    1.25901000    0.98108600
Se   21.23394000    6.25970000    2.19455000      0.378559    0.29674600    0.37348900
Se   21.02995000   11.65490000   12.24539000     -0.176933    1.07623300   -0.77486600
Se   22.72091000   14.40900000    3.38168000      0.273910    0.76222000    0.23919100
Se   21.26610000   15.72984000   11.36983000      0.131392   -0.05730100    0.90721200
Se   22.89571000   22.28748000    2.23744000      0.675582    0.30633400   -1.15936300
Se   21.84074000    0.22192000   15.66348000     -0.288761    0.09024600   -0.48539000
Se    3.69147000    4.85334000    9.83445000     -0.002609    0.34476300    0.65009900
Se    5.26907000    6.52823000   18.16425000     -1.141309   -0.13021800    0.22557100
Se    3.89577000   11.95322000    7.75533000     -1.319827   -1.18526100    1.00510500
Se    3.71576000    7.62106000   15.33255000      0.906264   -0.01629100   -0.66724900
Se    6.04132000   20.08508000    6.47185000     -0.105042    0.22073000   -0.23831200
Se   22.50508000   15.27370000   19.39223000     -0.265935    0.64993200   -0.25759400
Se    0.78238000   21.71413000   11.21629000      0.006633    0.21831300   -0.61543800
Se    2.78541000   20.62560000   17.53660000     -0.462795   -0.10200700    0.71332200
Se    7.47343000    4.29444000    7.83174000      1.717708   -0.83282900    1.46373100
Se    5.65140000    4.94333000    0.29781000      0.418542   -0.33571500   -0.22455000
Se    7.35268000   11.04206000    6.78899000      0.405571   -0.76664900   -0.30273000
Se    3.92725000    9.81173000    0.05216000      0.020243   -0.42972300   -1.24526100
Se    6.46366000   17.97070000    9.12939000     -0.748189    0.01050000    1.66927300
Se    6.42879000   16.15919000   18.19751000      0.461547   -0.54346000    0.07031900
Se    9.90221000   19.77295000    7.58435000      0.572405    0.19589600    0.58068300
Se    9.07845000    2.07140000    0.02734000      0.212160    0.62934200   -0.64062200
Se   14.18083000    2.75798000    9.59091000      0.237952   -0.70081100   -0.84586700
Se    8.44877000    4.88613000   18.48035000      0.484323   -0.70598300   -0.94872900
Se   10.44156000    5.87309000    8.85338000     -0.046450   -0.07778300   -0.41437900
Se   17.18528000   13.02686000   16.29475000     -0.404554   -0.79717100    0.33766200
Se   13.53266000   18.54865000    7.48365000      0.628634   -0.01924100   -1.17265500
Se   14.81699000   16.44226000   18.21350000      0.214359   -0.89463700    0.34598700
Se   15.68462000   23.51842000    7.82107000      0.047005    0.16149600   -0.68584000
Se   18.54026000    2.29151000   16.93925000     -0.404364    1.03385500   -1.86108400
Se   17.01377000    3.54388000   12.26539000     -0.528055   -0.06513200    0.16134500
Se   21.66639000    3.71409000   17.94085000      0.040088   -0.16808600    0.12132100
Se   18.30219000    9.09442000   12.16052000     -0.596706   -0.76335700    0.75854300
Se   20.77003000   10.75157000   15.97354000     -0.397060   -0.45114600   -0.82324000
Se   15.90454000   17.84628000   10.21115000      1.170803    1.25429400    0.42624900
Se   19.60529000   13.15002000   19.13661000     -0.060255    0.04092900   -0.42072600
Se   18.98374000   23.20362000    8.07067000     -0.458708    0.57990800   -0.41775500
Se   18.85527000   19.16905000    1.44831000     -0.635656   -1.19708600   -0.23372500
Se    5.19045000   23.38107000    8.82275000      0.742964   -0.52436100   -0.12484800
Se    4.29170000    2.95559000   19.58959000     -1.269683    0.35292400    0.62892000
Se    6.99253000    6.59710000   10.29430000     -0.910134    1.03711800   -0.30775200
Se    4.15343000    7.45646000    0.53001000      0.464572    0.04402900   -0.35644400
Se    4.92802000   16.45116000    6.44886000      1.966705   -0.57000200    0.29636100
Se    6.27768000   12.22038000   16.93603000      0.671019   -0.32245200   -0.21125600
Se    2.44766000   19.15357000    8.51836000      0.456294   -0.14870100   -0.74032400
Se   23.40446000   18.74009000    0.49951000     -0.237799    0.79216800    1.36437100
Se    9.02034000    0.04631000    7.19482000      0.071908    0.03202800    0.27092500
Se   12.56126000    4.17196000    1.78010000      0.556375    0.71100900   -0.34611600
Se   11.63765000    1.98849000    9.31535000      0.004305    0.49722300   -0.10828100
Se    8.16490000    6.64012000    0.64301000      0.159592    1.39535600    0.37639900
Se   10.92898000   13.47846000    8.22375000      0.640201   -0.56348200   -0.06374200
Se    8.98848000   14.34377000    0.86941000     -0.177871   -0.13643600   -1.51447300
Se   13.48728000   22.64969000   11.10498000     -0.181626   -0.36011100   -0.83636200
Se   13.45139000   13.38360000   17.03292000     -0.102038    0.72391600   -1.38850600
Se   16.87943000    2.81950000    8.43027000      0.378074   -0.15812100   -0.22192300
Se   17.73505000    5.23469000    1.31054000     -0.029732   -0.53608000    0.30722000
Se   15.38510000    7.88038000    8.40400000     -0.590275   -0.48923900    0.58133200
Se   15.83790000    9.26107000   17.91630000      0.127664    0.40438400   -0.13743900
Se   15.19387000   13.44667000    8.61315000     -0.410845   -0.47808300    0.19152700
Se   16.44880000   13.09079000   19.33242000     -0.560924   -1.18272200    0.30610400
Se   14.55979000   19.06239000    4.07059000     -0.352081    0.74286800    0.39664400
Se   20.05570000   21.02270000   17.97367000     -0.631835    0.18365700    0.62430900
Se   21.50923000    2.10688000    8.39602000     -1.009434   -1.31519500   -2.26443100
Se    0.51165000    0.16184000   16.25201000     -0.000927    0.67622200   -0.33814300
Se   20.97862000    7.18680000    9.50009000     -1.150992    1.36699800    0.31057100
Se   23.58537000    7.25614000   16.99737000     -0.385359    0.41364500    0.09000900
Se    0.06002000   11.46031000    7.98487000      1.124380   -0.27798800   -0.21239200
Se   21.97066000    8.42056000   18.63090000      0.055578   -0.64243200   -0.35199600
Se   21.97206000   17.76509000    7.51246000     -0.889601   -0.51732600    0.37085300
Se   19.72138000   16.69869000   17.85695000      0.377247    0.59795000    0.21779800
Se    0.93898000   22.85865000    9.06742000      0.218012    0.41959700    0.46085200
Se    3.12725000   23.28402000   13.01070000      0.136143   -0.13696800   -0.05939700
Se    2.41684000    8.04056000    7.99968000     -0.440997    0.46281800   -0.48049400
Se    2.13748000    9.19398000   18.06018000     -0.159535   -0.48874000    0.68843500
Se    0.36931000   16.28816000    8.80786000      0.070281    0.74671700    0.06702900
Se    1.04239000   12.14346000   18.11879000     -0.101636    0.57941300    0.13149300
Se    2.51879000   19.63662000    5.70653000      0.051973    0.23578300    0.17755100
Se   23.07869000   19.00855000   16.57545000      0.700931   -0.19253300   -0.10915400
Se    5.47106000   22.95240000    3.75780000      1.124128   -0.14169200    0.53088100
Se    6.35043000    1.44153000   17.13054000     -0.008511   -0.50171800    0.05106000
Se   10.45875000    6.83298000    5.52113000      1.366360    1.98545200    0.96694300
Se    6.17362000    7.96079000   15.65379000     -0.175611    0.23536000   -0.37780300
Se    7.07226000   14.06378000    8.12785000     -0.292806    0.51453200    0.39015900
Se    8.09986000   19.51379000   12.61144000      0.358524   -0.75748800   -0.06689700
Se    7.86271000   16.23318000    3.80689000      0.449831   -0.53910200   -0.00948700
Se    9.19604000   16.91169000   15.22627000      0.358684   -0.53358700   -0.28157600
Se   15.13538000   21.58610000    5.64423000      0.048100    0.19621600   -0.71848500
Se   14.37239000   22.70341000   15.99530000     -0.873138   -0.85309300    0.73935400
Se   13.18499000    8.78694000    4.85932000      0.425855   -0.00795800    0.00782500
Se   10.13628000    8.03964000   13.62497000     -0.695674    0.12381700   -0.83240100
Se   14.16205000   11.99522000    4.59642000      0.160764    0.55968500   -0.31372000
Se   15.32325000   15.28545000   14.64188000     -0.563452    0.32989100    0.25575300
Se   12.17527000   18.63592000    4.13727000      0.822958   -0.06585000    0.24833100
Se   15.97438000   19.50956000   18.58864000     -0.106503    1.14213600    0.11464200
Se   17.67730000    1.78995000    4.47593000      0.081065    0.64923700   -0.15180300
Se   18.81250000    0.86443000   18.57759000      0.411107   -1.41277100    1.65645500
Se   19.92214000    7.97187000    5.95944000      0.032244   -1.24497400   -0.27603400
Se   19.82224000    6.67851000   16.05743000     -1.713099    0.04574400   -0.17816500
Se   19.98325000   12.10865000    4.55067000     -0.125247   -0.72124800    0.76572700
Se   17.04764000   13.37069000   12.79335000      0.240114   -0.16065900   -0.17464300
Se   18.97066000   18.44435000    4.59471000      0.942477   -0.44834200    0.47485600
Se   20.85663000   20.31968000   13.99424000      0.234577    0.58063300    0.40989100
Se    5.45973000    6.92886000    6.22147000     -0.407846   -0.40800800   -0.93814700
Se    2.62881000    2.22457000   16.19541000      0.657070    0.25256100   -0.40306600
Se    3.02593000    9.72028000    3.12854000      0.872872   -0.38466900    1.12091100
Se    4.65311000   10.85289000   14.37458000     -0.772886   -0.72946200    0.06551800
Se    4.94742000   14.46277000    4.95323000     -0.176846   -0.59482600    0.07975500
Se    2.02371000   16.27630000   17.98764000      0.497557   -0.16631100    0.38830400
Se    1.17910000   22.96549000    5.47918000      0.082680    0.26264700    1.46162600
Se    3.12941000   19.45187000   13.61349000     -0.013762    0.33553400   -0.47176100
Se   12.49742000    0.60199000    6.21183000     -0.117096    0.50675600    0.01024100
Se    8.28402000    4.84174000   16.06006000     -0.113712   -0.65964000    0.59717400
Se   12.02695000   11.81282000    6.72047000     -0.760703   -0.09072900    0.83283100
Se   11.23715000   12.59003000   16.56253000      0.362668    0.11847500   -0.08312600
Se    9.97453000   16.26243000    9.20069000      0.670634   -0.04516300   -0.47510400
Se   11.53823000   19.81001000   19.17097000      0.194403    0.61875500   -0.92505200
Se   10.03632000   22.60896000    3.49934000     -0.178421   -0.31030600    0.24181800
Se    8.13578000   20.53286000   18.97252000      0.079090   -0.01553600   -0.58264800
Se   14.75085000    5.03521000    4.89849000     -0.094209   -0.22290000    0.21346900
Se   14.48958000    5.88176000   18.60992000     -0.744013   -0.05962500   -0.11260100
Se   16.72761000   10.50599000    6.87182000      0.098694   -0.04697800    0.56127000
Se   17.40696000    7.21812000   13.80215000      0.694292    0.16324700   -0.86383100
Se   17.20434000   14.40498000    5.63702000     -0.717584   -1.01592200   -0.18547400
Se   13.09188000   18.41699000   15.70416000      0.241722   -0.13890600   -0.11040200
Se   15.59308000   23.54299000    3.92139000     -0.251177   -0.83094900    0.48535900
Se   17.56119000    4.07746000   14.62477000     -0.356022   -0.65649100   -0.48648200
Se   22.25618000    4.50822000    6.70151000     -0.472680    0.93823800    0.20389400
Se   22.86012000    4.86520000   14.35760000     -0.564812    0.30427300    0.20916100
Se   17.19582000   10.62605000   10.05554000      0.689570    0.44658700   -0.42788200
Se   21.66875000   13.88435000   15.74838000     -0.334863    0.63422700   -2.49247700
Se   18.68508000   15.76100000    8.17882000      0.000617    0.80707000   -0.30311200
Se   22.32025000   16.23007000   15.58110000      0.316101   -0.11937500    0.25311900
Se   21.33505000   23.21938000    8.34919000      0.622723    0.33163900   -0.01396600
Se   22.80984000   23.35276000   19.12969000      0.144155   -0.18523700    1.34823900
Se    4.49900000    3.29130000    7.02120000     -0.302681   -0.19809500    0.58851500
Se    5.09453000    0.09243000   15.38193000      0.727587   -0.23822300   -0.27161400
Se    4.11537000    4.51059000    3.51921000      0.296350    0.99799600   -0.36309400
Se    4.11419000    8.39308000   11.22084000     -0.122809    0.21987100    0.13696600
Se    1.29623000   11.04886000    2.27788000     -0.455481    0.63835300    0.23301700
Se    4.81044000   14.43698000   14.52567000     -0.567167    0.14904100    0.17403000
Se    4.47813000   16.91676000    1.79858000     -0.606950   -0.39021500   -1.17143900
Se    3.54209000   16.76028000   13.35067000      0.505627    0.30785200   -0.40668100
Se    9.06354000    0.78939000    2.49216000      0.136816    0.61003600   -0.06314500
Se   10.94942000    1.31414000   14.30742000     -0.378390    0.38599900    0.40127100
Se   10.24037000    9.84528000    2.80655000      0.033097   -0.24908600    0.21103500
Se    8.82443000    8.96945000   16.76562000     -0.630451   -0.01400100    0.14085100
Se    9.52008000   13.04412000    4.55928000     -0.637847    0.10091400    0.73127200
Se   12.43615000   10.86347000   12.81687000     -0.591401    0.47289900   -0.44414400
Se    9.73517000   19.31161000    2.21902000     -1.263911    0.70297200    0.09674000
Se    8.01808000   22.25912000   14.97928000      1.190093    0.80702300    0.19529900
Se   18.09664000    4.90417000    8.44156000     -0.071677    0.43849800    0.48759600
Se   14.67055000    1.22926000   16.48198000      0.482437    1.35067700    0.86162000
Se   16.47250000    7.18711000    4.05570000      1.250614    0.79938800    0.76913400
Se   13.07206000    7.62435000   15.28322000      0.083190    0.05804100   -0.70871100
Se   16.86623000   12.22232000    1.72859000      0.534108    0.94575500   -0.30882300
Se   17.87515000   18.05282000   15.02031000      0.324896    0.28522200   -0.42275400
Se   15.31384000   16.66956000    3.93135000      0.137683   -0.08142600   -0.79036700
Se   16.95300000   20.33578000   14.32142000      0.127777    0.05864600   -0.25526700
Se   23.26603000    1.88408000    4.57206000     -0.401850    0.49479900   -0.42400700
Se   21.93934000    1.12265000   11.91646000      0.180095   -0.88744100    1.22048300
Se    0.11300000    8.08377000    5.10492000      0.265018    0.91192100    0.45163200
Se   21.63165000    7.11170000   13.61664000      0.026905   -0.58114200   -0.17114500
Se    1.89297000   15.79748000    4.35260000     -0.120373    0.50538100    0.61341500
Se    1.29035000   12.12879000   14.94476000     -0.622694    0.44804000   -0.14206100
Se   22.85539000   20.44444000    5.66349000     -0.291933   -0.51312000    0.44942800
Se   20.95644000   21.28127000   10.37848000     -1.725888   -0.05557800    0.63988900
Se    2.49373000    4.58133000    6.77907000     -0.881214   -2.25615300    1.27057200
Se    1.90369000    3.26475000   12.51033000      0.069716   -0.08578500    0.37085900
Se   22.23166000   11.30959000    5.24104000     -0.529280    0.43267600    0.10830400
Se    1.36250000    9.09167000   14.32259000     -0.159259   -1.77990900    2.23666300
Se    1.79723000   14.97505000    1.65665000      0.468027   -0.09454500    0.52129700
Se    1.26805000   16.60054000   14.42330000     -0.542871   -0.70836500    0.00167400
Se    4.00529000   20.99274000    2.11585000     -0.654572   -0.69182400   -0.60949700
Se    5.19089000   17.47514000   16.78275000     -0.265619    0.58292000    0.16765600
Se   10.95539000    3.19938000    5.32899000      0.499450   -1.06847500    0.24138000
Se    8.29548000    2.34255000   13.15521000     -0.775412    0.34783700    0.66260400
Se    6.46757000    8.87610000    3.73298000      0.089336    0.05935100   -0.33976900
Se    8.16597000   11.03458000   13.26547000      0.436931    0.30043400   -0.15387500
Se    7.05460000   14.55197000    2.09576000      0.648560   -0.46212100    1.65453000
Se    9.82425000   15.15105000   13.50704000     -0.869875    0.28132700    0.07185400
Se    7.27945000   22.05635000    8.94495000     -0.419293    0.56852000    0.79147200
Se    6.05951000   19.83529000   16.01839000     -1.961348    0.20436400   -0.13898300
Se   13.75948000    0.97210000    2.91679000     -0.196645   -0.72286600   -0.53396900
Se   10.32698000    5.67164000   13.29209000     -0.688930   -0.24294900    0.27735500
Se   13.18295000    9.90280000    0.64130000      0.043451    0.51353100    0.83203500
Se   15.74589000   10.08754000   14.22398000      0.097613    1.25475500   -0.28241500
Se   10.15102000   16.50662000    5.91196000     -0.386918    0.17932500    0.11732900
Se   14.19647000   17.00450000   11.50805000     -0.556523   -0.85865300    0.50855100
Se   14.63918000   21.34856000    1.11378000      0.611423    0.00651000   -0.24712400
Se   15.58492000   23.14778000   14.12181000      1.063560   -0.40962600   -1.58041500
Se   17.80261000    6.20897000   19.01614000      0.673583   -0.29350000    0.02511500
Se   14.63839000    5.68960000    9.61973000      0.887387    0.18559900   -0.27971700
Se   19.88859000    8.38541000    2.46802000      0.510021   -0.91471100   -0.17310000
Se    1.82969000   12.08439000   12.56787000      0.419634    0.94983500   -0.01171700
Se   20.68306000   16.76302000    3.93631000      0.004528    0.12922400    0.02615900
Se   18.11875000   16.17799000   13.27307000     -0.358934    0.57076600    0.76466700
Se   19.61679000   22.06589000    3.94351000     -0.158146    0.15336500    0.90134100
Se   18.68376000    0.46913000   14.74481000      0.559674    0.16539500   -0.43647900
