384
23.69824000 23.69824000 19.89960000
Ge    5.20463000    6.70266000   12.79154000      0.097628   -0.70190600    1.05228100
Ge    6.57470000    5.36224000    3.36926000      0.610446   -0.17943400   -0.98898000
Ge    1.83549000   13.02510000    6.64399000      0.122508   -0.41483700    0.87514600
Ge    8.92535000   14.48241000   15.82274000      0.074779    0.31878400    0.06365800
Ge    4.99009000   15.08090000    9.97824000      1.087691    0.03972000   -0.18543900
Ge    9.57348000   18.31643000   19.57653000     -0.591482    0.39810700    0.26098100
Ge    8.11300000   22.45794000   11.81798000      0.438419    0.33129300   -0.90290800
Ge    5.63858000    0.80098000    0.26071000     -0.513093    0.41639900   -0.09132600
Ge    9.15270000    5.56034000   10.81299000     -0.687931   -0.90407900    0.82252100
Ge   11.00675000    6.14554000   19.44197000     -0.403512    0.36882900    0.42520800
Ge   10.48615000    8.50548000   10.18048000     -0.353286    0.19704700    0.55818800
Ge   13.38882000   12.51439000   19.45581000      0.299862   -1.19119600    0.09276900
Ge   11.64319000   18.28899000    8.88134000      0.089896    1.52498300   -0.14393200
Ge   12.51499000   15.92207000    0.71566000      0.628020   -0.07477700    0.19085300
Ge   10.98218000   23.19986000    9.26074000      0.018662    0.45779300   -0.35886800
Ge   16.40631000   22.44289000   18.88842000      0.052241   -0.63501400    0.81956800
Ge   18.93927000    5.20109000   11.81490000     -0.403585    0.34685100   -0.39216000
Ge   19.83180000    8.79825000   17.35828000      0.153298   -0.96183700    0.21717200
Ge   19.68356000   11.66688000   10.01522000     -0.511269   -0.30020700   -0.61422800
Ge   18.08464000   11.32442000   18.06019000      0.873046    0.35307900    0.67666200
Ge   14.77453000   20.20724000    9.08796000      0.734223   -1.05567000    0.08653400
Ge   18.06192000   15.50417000   19.50370000     -0.557555   -0.76064100    0.05980100
Ge   19.71174000    1.85848000   12.63680000     -0.294734    0.29036600    0.11174400
Ge   20.59071000    3.90331000    0.94203000     -0.846180    0.48656700    0.70357800
Ge   23.24481000    6.35923000    8.61059000     -0.855123   -0.52641000    0.54405700
Ge    2.32298000    3.07057000    4.20334000     -0.805546    0.36014000    0.55716100
Ge    1.80520000   10.07367000    9.61379000     -0.275726    0.90106900    0.62048700
Ge    0.68577000    9.48316000    0.23949000     -0.753972    0.06629300   -0.10420200
Ge   21.11407000   15.21352000    8.92418000     -0.109868    0.41152700   -0.97783900
Ge    0.85505000   14.37258000   19.46438000      0.355087    1.50981800    0.32098600
Ge   18.80011000    1.46912000    9.51893000      0.314620    0.51520200   -0.71806600
Ge    0.66265000   21.14254000    0.06455000      0.807534   -0.30293200    0.27566900
Ge    4.93166000    8.24117000    8.18577000      0.021903    0.02823800    0.41727500
Ge    1.53785000    6.50586000   18.95674000      0.752658   -0.31551900    0.04651800
Ge    1.90985000    9.73212000    6.10638000     -0.840526    0.57585300   -1.31187100
Ge    3.50177000   12.49928000   16.40698000      1.047299    0.16713800   -0.05765500
Ge    5.97874000   17.65640000    3.56309000      0.491230    0.51694100    0.37427400
Ge    0.04172000   17.64287000   18.49008000     -0.552188   -0.08481900   -0.83355300
Ge    4.61074000   20.42317000    9.03816000      0.556937   -0.23644000   -0.35474000
Ge    4.12426000   22.82299000   18.00538000     -0.871129   -0.38180300    0.32806500
Ge    9.55205000    2.56645000    7.35682000      0.634629   -0.26417500    0.42372700
Ge    6.63266000    8.28796000   18.76960000      0.943778    0.34110300    0.02342000
Ge    5.67825000   12.86007000    6.55455000      0.466315   -0.37676900    1.71682500
Ge    8.18792000    8.85602000    2.06894000     -0.604403   -0.79951400   -1.19577100
Ge    7.85652000   18.24723000    7.08599000     -0.156338    0.70830500    0.82737800
Ge    4.30180000   19.36629000   19.18595000      0.141390   -0.05065700    0.12056800
Ge   11.08126000   22.25868000    6.15502000     -0.679882    0.68049300   -0.33146800
Ge   10.25728000    2.38632000   17.64032000      0.083718   -0.49490500    0.54644500
Ge   13.44768000    6.85441000    6.05860000     -0.231136   -0.62163300   -0.36772800
Ge   13.61315000    8.36231000   18.85448000      0.017931   -0.58999700   -0.94787500
Ge   15.55975000   12.67334000    6.40466000      0.931830   -0.28812700   -1.29859900
Ge   16.98799000   15.70196000   16.52183000     -1.075083    0.32486000   -0.53968000
Ge   12.66430000   16.26873000    4.92563000     -0.400450   -0.96218000    0.04663500
Ge   15.26656000   18.14556000   16.62299000     -0.154153   -0.34740900   -0.00927700
Ge   15.06635000    0.35792000   10.07142000      1.065277    0.68295000   -0.48964600
Ge   16.49015000    4.25560000   18.42243000     -0.765232   -1.10807000    0.17322600
Ge   20.27923000    5.90285000    7.31076000     -1.522178    1.55293100    0.22047600
Ge   21.92750000    5.51539000   16.49007000      0.199043    0.50257900    0.04905000
Ge   19.53592000    9.22580000    8.02351000      0.850962    0.15161300   -0.61346600
Ge   21.87102000   13.38808000   17.92037000      0.106926   -0.47035500   -0.43389300
Ge   19.25293000   17.97129000    7.07372000      0.306603    0.11262500    0.89916100
Ge   20.56015000   19.44295000   16.45631000      0.378057   -0.75026100   -0.81309100
Ge   19.82621000    0.69193000    5.33002000     -0.494389    0.23922300    0.03804100
Ge   20.52813000   20.98868000    1.15924000     -0.574293   -0.39778000   -0.43390800
Ge    5.61956000    3.08897000   10.73807000     -0.253912    0.09756300   -0.09432000
Ge    4.80810000    3.36459000   17.17569000      0.156836    0.80825600   -0.60170200
Ge    3.14397000    6.23611000    5.12082000     -0.136949    0.75666400    0.48310400
Ge    3.12227000    9.87136000   12.75148000     -2.149960   -1.34763300   -0.53500700
Ge    2.85794000   17.25913000    6.44717000     -0.323634   -0.90648500    0.07911000
Ge    1.49826000   14.53165000   15.83771000     -0.237448    0.44679400    0.76184300
Ge   22.75421000   19.97806000   10.10332000      1.171824    0.19209100   -0.29867200
Ge    3.48847000   21.72791000   15.12011000     -0.475157    0.57626200   -0.21477800
Ge   10.15842000    3.42268000    2.51277000     -0.245762   -0.09390600   -0.29128200
Ge    8.53903000    2.08802000   15.64708000     -0.252938    0.78745800    0.83955400
Ge    9.17189000   10.47173000    5.16813000      0.207101    0.12107900   -0.24424100
Ge    7.22820000   10.79541000   15.46318000      0.579543   -1.26128200   -0.27697000
Ge    9.36295000   14.49941000    6.78548000     -0.103681   -0.15233900   -0.84767300
Ge   15.42370000   11.33392000   16.41097000     -1.639958   -0.39665400    0.12158600
Ge    7.49566000   21.55025000    4.38743000      0.019644   -0.36166300    0.07755600
Ge    8.51298000   20.01224000   15.62396000     -0.383101   -0.16472700   -0.12975400
Ge   14.72404000    2.24419000    6.69480000      0.039548   -0.91386700    0.46453900
Ge   12.86803000    2.68700000   15.72908000     -0.385123   -0.49690000    0.05828600
Ge   15.31713000    9.56152000    4.82423000      3.161603    1.14766000    0.11760600
Ge   15.48452000    7.86686000   15.41111000      0.703101    0.01395100    0.24203000
Ge   15.73905000   14.00643000    3.27315000     -1.015581    1.02547900    1.57239600
Ge   13.06201000   15.63773000   15.44482000     -0.976539    0.98314800    0.08010400
Ge   14.04872000   18.93821000   19.81363000     -0.263340    0.23573400    0.54250500
Ge   10.08659000   21.44911000    0.54828000     -0.401784    0.11072700    0.66855300
Ge   23.09817000    4.32592000    3.72010000     -0.106265   -0.14005800    0.19586300
Ge   23.52389000    2.52209000   16.21876000     -0.119227   -0.01080100   -0.18291700
Ge   22.44880000    9.34185000    7.03505000     -0.364944   -0.48030800   -0.89274800
Ge   20.23187000    9.77028000   13.81962000      0.659883    0.08540900   -0.90600100
Ge   23.07455000   16.12083000    5.59421000     -0.486511    0.13456800   -0.26156400
Ge   19.42475000   14.01753000   13.23252000      0.096635   -0.14272300   -0.19313200
Ge   20.32907000   20.61043000    5.73300000      0.076198    0.12444000    0.20717400
Ge   20.96369000   23.21090000   17.78734000     -0.847262   -0.13179100    0.54441300
Ge    6.39955000    4.54537000    5.74479000     -0.242358   -0.68797000    0.94294600
Ge    3.70047000    2.03447000   14.23719000      0.853868   -0.85504200   -4.03824000
Ge    5.28723000   10.82349000    3.48084000      0.039916    0.83576400   -0.51562800
Ge    7.65618000    8.74009000   12.81021000     -0.569874   -0.40219200   -0.33067400
Ge    5.37457000   15.08837000    0.30946000      0.452906    0.02883200    0.51652100
Ge    4.74040000   12.77139000   12.98224000     -0.225714   -0.30328300    0.23994900
Ge    4.58304000   22.73572000    6.13208000      0.147211   -0.64750800   -0.38696400
Ge    6.12723000   21.11293000   13.32460000      0.011606    0.66256600    0.52970600
Ge   15.02758000    6.03708000    2.51921000      0.271865    0.23943900   -0.20111700
Ge   13.18282000    0.26727000   13.17608000      0.685769    0.07338300   -0.29606800
Ge   11.00330000   10.23457000   19.65003000     -0.869546   -0.60806400    0.03374300
Ge   14.18259000    9.02279000   12.71208000     -1.000471    0.65935000    0.28475700
Ge   10.73295000   13.59308000    2.47663000     -0.389722    0.13444000    0.70199600
Ge    8.42078000   17.24931000   10.76185000     -0.907632   -0.62852800    0.40513500
Ge   12.43649000   22.67470000    1.24951000      0.804960    0.68969400    1.04819200
Ge   10.33803000   22.39152000   14.03216000      0.772992   -0.36815800   -0.22916000
Ge    0.62872000    2.04763000   19.02868000      0.140507   -0.66891400   -0.29182900
Ge   12.60681000    6.30372000   12.99811000      0.913778   -0.24187500    0.12645400
Ge   17.52178000    8.52095000   19.78073000     -0.605247   -0.42210200    0.27574700
Ge   12.63561000    6.21333000    8.47498000      1.755690    0.66712300    0.23681200
Ge   21.01637000   13.33873000    2.56702000     -1.916556   -0.10949400    1.56018400
Ge   16.10919000   17.00955000    7.88024000     -1.060116    0.64670800    0.48423100
Ge   16.99240000   21.24524000    3.05970000      0.309816    0.21312400   -0.50031000
Ge   18.75172000   21.93009000   13.52946000      0.891437   -0.85382800    0.26187000
Ge    0.98258000    1.68323000    2.36685000     -0.319057   -0.24889200    0.28319900
Ge   22.89330000    2.35533000   10.21985000     -1.281841    0.10909600   -0.30986800
Ge   22.51110000   10.14209000    2.96492000      0.243272   -0.69164300    0.77071400
Ge   22.84224000    8.98697000   13.30782000      1.198410    0.34486500   -0.45305600
Ge    2.75589000   13.24018000    3.79964000     -0.537611    0.44679500   -0.68445800
Ge    0.30582000   16.41139000   11.73139000      0.142167   -1.10036700   -0.90614500
Ge    0.56764000   21.34580000    3.93258000     -1.316349    1.57277000   -0.01120400
Ge   20.93244000   17.96295000   12.22564000     -0.148641    0.08776000    1.14198700
Se    2.64082000    0.47536000    0.09521000      0.465727   -0.38252700   -0.42131600
Se    1.34256000    1.41866000    9.53292000      0.629765    0.96967400    0.25840500
Se    0.70742000    7.23972000    1.23186000     -0.153733    0.18848700    0.23826900
Se   23.45805000    9.31509000   10.85537000     -0.342970   -0.33446000   -0.28815200
Se   22.03506000   11.91212000    1.11488000      0.690287   -0.79321000   -0.56607400
Se    1.03387000   14.01007000    8.90112000      0.295532    0.08334400   -0.04974500
Se    2.13871000   19.84146000    3.09218000      0.217033   -1.75745000    0.12044600
Se   23.44741000   18.66047000   12.29718000     -0.584281    1.14542500    0.06655800
Se    6.93146000    3.24771000    1.61645000      0.159732   -0.39787300    1.35394500
Se    5.80094000    3.45051000   13.33623000     -0.032619   -0.01846400   -0.28254800
Se    9.38808000    4.80671000    4.71682000      0.887449    1.03426800    0.32261300
Se    7.74388000    8.80364000    9.82573000      0.672723    0.95385500    0.20615000
Se    8.30946000   10.32718000    0.13438000     -0.502319    0.23972500   -0.02822400
Se    7.26082000   14.84835000   11.24296000      0.023731    0.97906600   -0.03822000
Se    7.28704000   19.81179000    2.36107000      0.598848   -0.15444100    0.39545200
Se    9.99482000   20.44777000   11.70448000     -0.295994    1.18778500   -0.16525300
Se   12.68019000    0.83451000   19.52844000      1.168680    0.40413500    1.74579400
Se   12.72400000    3.09266000   11.89299000      0.242391   -0.37792500    1.20798800
Se   11.05972000    8.48004000   17.65269000      0.564588    0.26016800    0.42877500
Se   10.92220000    9.76250000    6.69679000     -0.367377   -0.01661300    0.72583100
Se   13.18865000   13.58161000    1.69985000      0.531861    0.69159700    0.29997400
Se   13.04581000    8.81507000    9.26285000     -1.128421   -0.00652500    0.24194400
Se   15.06867000   16.71609000    1.31180000     -0.526978   -0.08821600   -0.10653800
Se   12.51363000   18.67440000   11.33123000      0.037340   -0.50833800   -0.49976600
Se   19.28521000    3.56062000    3.90472000      0.388609    0.05907600   -0.39825900
Se   13.96717000    4.04038000   14.01033000     -0.494299    0.03928300   -1.31614200
Se   15.99130000    5.25205000   16.23865000     -0.393039    0.13763000   -0.57027500
Se   20.16742000    4.32954000   13.87460000     -0.303468   -0.92594800    0.20900000
Se   19.82194000    9.35839000    0.28973000      0.527708    0.68601300   -0.95407900
Se   16.71661000   19.72272000    7.34020000      0.205871   -0.68856400    0.14762200
Se   19.80321000   17.09560000    0.49020000      0.623899    0.93111700    1.20223500
Se   19.55857000   19.23117000   10.67525000     -0.279960   -0.37462700   -0.68265000
Se    3.04576000    0.81061000    4.90517000     -0.448645   -0.44800000    0.25717300
Se    2.27258000    5.42706000   12.09986000      1.225778    0.45211700   -1.18166200
Se    6.02107000   11.63335000    0.78088000     -0.501008   -0.07263800    0.71556900
Se    4.84028000   12.57680000   10.54765000     -0.359424   -0.04814900    0.40165500
Se    3.81819000   13.11671000    0.83941000      0.304374   -0.07734300    0.30321600
Se    3.49810000   16.98238000   10.90756000     -0.740543   -0.46583000    0.52453100
Se    5.54584000   21.69600000   19.85311000      0.319126    0.10933000   -0.18812700
Se    4.78983000   19.64866000   11.87216000     -0.133921    0.03554000   -0.37628500
Se   11.61959000    6.45679000    2.13689000     -0.069170    0.86917400   -0.32532900
Se    8.61698000    3.09335000   10.37738000     -0.871411    0.95012300    0.75891500
Se   10.44420000   12.71942000   18.94900000      0.374218   -0.20061400    0.49825800
Se   10.66137000   10.82013000   11.13380000      0.894208    0.73496600    0.91920300
Se   10.84394000   16.20558000    2.84654000      1.425513   -0.86144000   -0.20976900
Se   12.18005000   15.01185000   12.95807000     -0.197575    0.23618400    0.78393100
Se   11.51703000   23.69724000   17.81486000     -1.409834    0.05656400   -1.43770000
Se   10.10572000    0.76949000   11.21493000     -0.253987   -1.14297700    0.28565200
Se   11.87803000    4.26398000   17.35192000      0.193800   -0.67295100   -0.09285800
Se   17.89283000    8.09175000    9.39057000     -1.033845    0.22979900    0.36971600
Se   16.64478000    9.10278000    2.37654000     -0.089692    0.58412200    0.03410800
Se   17.99195000   13.43980000   10.47602000     -0.510764    0.45021400    0.79321100
Se   18.59844000   14.21966000    2.18901000      0.002249    0.33213300    0.10852100
Se   13.74977000   15.49778000    8.14800000      1.373144   -0.63156800   -0.22740900
Se   18.36149000   22.37972000    0.95993000     -1.146594   -0.07185900    0.03755900
Se   17.22955000    0.60158000   11.14717000     -0.708426   -0.53202100    0.94617500
Se   23.17982000    3.26563000    1.06838000      0.734945    0.15005200    0.12950400
Se   21.96318000    4.63210000   10.37983000      0.860993    0.13547300   -0.06224500
Se   21.22288000    6.08559000    2.16636000      0.360299   -0.33955800    0.02946900
Se   20.91852000   11.60892000   12.10928000     -0.151472    0.09923000    0.83718000
Se   22.64371000   14.55000000    3.68747000      0.737206    0.17005600   -0.35943100
Se   21.20362000   15.60161000   11.27346000      0.500185   -0.00147300    0.62131100
Se   22.94765000   22.21531000    2.01879000      1.268896    0.17717100    0.96059400
Se   21.92686000    0.50230000   15.71131000      0.093087   -0.60045000   -0.64229300
Se    3.67845000    4.78693000    9.76262000      0.360999   -0.01336300    1.01548300
Se    5.08732000    6.44520000   18.08689000     -0.836565    0.12677800    0.52987800
Se    3.82210000   11.86742000    8.04790000      0.325328    0.51491600   -1.08778800
Se    3.77761000    7.53548000   15.45962000      0.511064    0.00573700   -0.69835800
Se    5.98239000   20.00822000    6.42722000      0.135928    0.45141000   -0.25188000
Se   22.31592000   15.37059000   19.33483000      0.376401    0.37912100   -0.02266500
Se    0.89241000   21.87401000   11.12308000     -0.347739   -0.79531700   -0.04442600
Se    2.73777000   20.34451000   17.62239000     -0.150792    0.50686300    0.22661700
Se    7.59153000    3.99884000    7.82309000      0.017000   -0.23321000   -0.24332100
Se    5.67446000    4.74629000    0.35492000     -0.363584    0.33959500   -0.84547300
Se    7.27707000   11.12699000    6.72961000      0.134087   -0.98805000   -0.19717600
Se    3.92938000    9.73821000    0.13104000     -0.103711    0.36453300   -1.16773000
Se    6.45754000   18.09675000    9.40378000      0.427268   -0.17870000   -0.66141100
Se    6.58081000   15.99106000   18.15808000     -0.605064    0.22199000   -0.35119300
Se    9.96665000   19.88728000    7.66232000      0.070218   -0.21505000    0.55388400
Se    9.22088000    2.30454000    0.15632000     -0.171426    0.39612700   -0.93191300
Se   14.27607000    2.66124000    9.56055000      0.058935   -0.00408300   -0.76243600
Se    8.27423000    4.84937000   18.43641000      0.610020   -0.39969500   -0.19666100
Se   10.39695000    5.90019000    8.88375000     -0.429171   -0.29736500   -1.19092200
Se   17.23564000   12.80790000   16.31560000      0.510573    0.94916400   -0.56085900
Se   13.56129000   18.72299000    7.39231000     -0.515458   -0.22890700    0.51651500
Se   14.74682000   16.23542000   18.34916000      0.353948    0.11455900   -0.24642000
Se   15.80229000   23.51870000    7.88303000     -0.192054    0.09782900   -0.83654100
Se   18.68848000    2.21086000   16.80279000     -0.207276   -0.63542100    0.49678300
Se   17.03013000    3.52814000   12.09980000      0.113492    0.27138200    0.56750200
Se   21.96859000    3.75656000   18.06933000     -0.224698    0.00006200   -0.11741000
Se   18.35642000    9.23159000   12.38183000     -0.383561   -0.60062300    0.67788700
Se   20.48293000   10.71014000   15.99048000     -0.022578    0.58009200   -0.10169800
Se   15.95492000   17.94567000   10.33679000     -0.227122    0.33287000   -0.03818600
Se   19.64237000   13.26574000   18.88323000     -0.696629   -0.08435800    0.25301600
Se   18.88147000   23.13913000    7.95201000     -0.534662    0.27624900   -0.40213300
Se   18.66935000   19.18393000    1.12246000     -0.024441   -0.02411300    0.03083400
Se    5.05250000   23.11579000    8.78140000      0.331158    0.08889400    0.31243700
Se    4.00095000    2.99057000   19.46516000     -0.031682   -0.08597700    1.12891400
Se    6.94119000    6.70061000   10.33078000     -0.657804   -0.86985500    0.00708600
Se    4.33036000    7.50647000    0.52569000      0.567722   -0.94167300    0.22927100
Se    5.16462000   16.31485000    6.65439000     -0.095213    0.14687800   -0.03015800
Se    6.31584000   12.05408000   17.08813000      0.062234    0.51459400    0.35356900
Se    2.42485000   19.17719000    8.56331000      0.149129   -0.28637300   -0.64342800
Se   23.22102000   18.93161000    0.51074000     -0.118974    0.01003600    0.16796500
Se    8.94004000    0.22745000    7.23508000      0.518632   -0.85888100    0.38305000
Se   12.43666000    4.36019000    1.77589000      0.460718   -1.10258600   -0.06577500
Se   11.62152000    2.14269000    9.31141000     -0.281269   -0.18699100   -0.16374800
Se    8.51545000    6.73724000    0.79592000     -0.544291    0.58417400   -0.23289900
Se   11.18854000   13.50105000    8.12154000     -0.759242    1.15801700    1.61253100
Se    8.99378000   14.24744000    0.84508000     -0.551058   -0.20978200   -0.78205700
Se   13.73536000   22.51179000   11.09709000     -1.169590   -0.51186700    0.13819700
Se   13.65744000   13.23575000   16.95025000      1.911514    0.76752600   -0.59765000
Se   16.94051000    2.95916000    8.30267000      0.217079   -0.84962000   -0.24296500
Se   17.66565000    5.27559000    1.41324000     -0.165523   -0.45074100    0.68967000
Se   15.12810000    8.04974000    8.57566000      0.915195   -1.36196400   -0.28668400
Se   15.91332000    9.19838000   17.76676000     -0.167104    0.14116100    0.05189400
Se   15.04794000   13.37765000    8.51774000     -1.335797    1.14618000    1.22595600
Se   16.39391000   12.94815000   19.35590000     -0.851089   -0.28831200   -0.18457800
Se   14.56809000   19.10420000    4.02813000      0.190520    1.33403800    0.02137200
Se   19.77820000   21.05417000   18.04216000     -0.025310    0.50100900    0.20101000
Se   21.48466000    1.89499000    7.98150000      0.394920   -0.03261300    0.47331500
Se    0.60057000   23.67140000   16.15339000     -0.823413    0.61618900   -0.06186900
Se   20.84660000    7.32244000    9.49002000      0.308236   -0.14827300   -1.06748400
Se   23.68195000    7.29498000   17.04750000     -1.248665    0.08439300   -0.27016600
Se    0.18221000   11.46307000    7.89985000      0.263685   -0.76640200   -0.19484000
Se   21.94590000    8.08112000   18.62241000      0.094019    0.53494200    0.09843300
Se   21.75020000   17.45371000    7.54406000     -1.157214    0.11098700    0.51636100
Se   19.51482000   16.95861000   18.06944000      0.282572    0.51970000   -0.96709700
Se    1.03565000   22.91991000    9.03786000     -0.224761   -0.56115500   -0.42549800
Se    3.18096000   23.34244000   12.99914000      0.372537    0.50008900    0.84545100
Se    2.29207000    8.27929000    8.00760000      0.424034   -1.63671000    0.23778800
Se    2.22109000    8.88933000   18.18676000     -0.024378    0.39999400   -0.22093800
Se    0.39747000   16.22105000    8.68104000      0.336975    0.46752300    0.04997300
Se    1.07374000   12.51487000   18.17617000      0.002375   -1.07714700   -0.51344800
Se    2.60783000   19.40364000    5.63368000     -0.009605    1.42439200    0.26044200
Se   23.06983000   19.07316000   16.46584000      0.259559   -0.27321300    0.60366500
Se    5.67563000   23.05771000    3.73996000      0.597596   -0.03566900    0.63891000
Se    6.29864000    1.30719000   17.21561000      0.403665   -0.55848900    0.26252700
Se   10.71141000    6.89101000    5.36175000     -0.130834   -0.17952000    0.07060100
Se    6.20820000    7.87687000   15.71470000      0.240200    0.00079400   -0.43605900
Se    7.20169000   14.43625000    8.05807000     -0.091248   -0.28546300   -0.24850100
Se    8.03828000   19.52882000   12.59558000     -0.137952   -0.99684500    0.70826400
Se    8.09956000   16.13004000    3.61471000     -0.552589    1.48685800    0.94087900
Se    9.17150000   16.84733000   15.12783000      0.186817   -0.52441200    0.25441600
Se   15.06703000   21.66845000    5.53595000     -0.000880   -0.49577100    0.39203500
Se   14.17978000   22.58174000   15.91969000      0.174466    1.01329900   -0.22499000
Se   13.23813000    8.86732000    4.65383000     -2.067398   -0.90362800   -0.24627000
Se    9.89166000    8.18618000   13.70600000      0.238319   -0.69342900   -0.61951600
Se   14.10511000   11.94234000    4.47622000      0.920432    1.01480600    0.10137800
Se   15.23719000   15.35982000   14.57887000      1.157602   -0.09787000   -0.00341100
Se   12.29903000   18.53705000    4.24187000     -0.942721    1.20297700   -0.22566800
Se   15.88082000   19.73457000   18.46413000      0.692976    0.26856000   -0.52215700
Se   17.75620000    1.83962000    4.42511000      0.187398   -0.15169800    0.10828100
Se   18.72441000    0.68513000   18.79744000      0.737323    0.61279300   -1.17307900
Se   19.86012000    8.15309000    5.70248000      0.198464   -0.91006000    1.32555700
Se   19.74491000    6.59881000   16.19266000     -0.101329   -0.21903000    0.01889200
Se   19.91488000   11.97829000    4.58836000     -0.996723    0.59702300   -0.96812200
Se   16.99126000   13.26520000   12.76160000      0.760263    0.20649500   -0.62033600
Se   19.04924000   18.39166000    4.62541000     -0.116771    0.37975300   -0.20419500
Se   20.88127000   20.34062000   14.13025000     -0.501323    0.66633700    0.05627000
Se    5.55813000    6.82620000    6.21888000     -0.595823    0.56047100   -0.16656800
Se    2.69144000    2.32717000   16.14860000     -0.924165    0.75337300    2.85843500
Se    3.02760000    9.61168000    3.40754000     -0.144886   -0.04331400    0.03283800
Se    4.63442000   10.47204000   14.30311000      1.352866    1.45581000    1.50662000
Se    5.02526000   14.40716000    4.94686000     -0.558327    0.73867400   -0.68105200
Se    2.08533000   16.24783000   18.14392000     -0.302529    0.11916700    0.38005500
Se    1.09656000   23.02514000    5.66479000      0.501928   -0.05168400   -0.54883600
Se    3.22085000   19.74517000   13.65960000     -0.334225   -0.58492300   -0.56398600
Se   12.54291000    0.59002000    6.31597000      0.102081    0.76845900   -0.00618500
Se    8.15828000    4.99608000   16.14823000     -0.070754   -0.73175100   -0.12509700
Se   12.10367000   12.03347000    6.79773000      0.509972   -1.67453600   -0.96212800
Se   11.44912000   12.98529000   16.80947000     -2.084568   -0.38915900   -1.39665600
Se   10.10091000   16.52689000    9.02939000     -0.277769   -1.08346000   -0.07063400
Se   11.43375000   19.86938000   19.14729000      0.621738   -0.20760000   -0.93425700
Se   10.10066000   22.56746000    3.64670000     -0.520824    0.02062800    0.27622500
Se    8.04836000   20.71449000   19.16572000      0.214903   -0.50951400   -0.86001600
Se   14.90907000    5.16024000    4.89257000     -0.438074   -0.41256500    0.80085500
Se   14.43945000    6.00855000   18.60006000     -0.427923   -0.05029300    0.25248200
Se   16.71370000   10.50444000    7.10076000     -0.763774   -0.17998000   -0.56566900
Se   17.43972000    7.37562000   13.87264000      0.639617    0.00860600   -0.87889900
Se   17.08754000   14.36828000    5.64192000     -0.581459   -0.83288500   -0.64943100
Se   13.03806000   18.47999000   15.82585000      0.256448   -0.53431100   -0.12498500
Se   15.47303000   23.32144000    3.98899000     -0.220470    1.00616100   -0.46738000
Se   17.56706000    4.13616000   14.53158000      0.130356   -0.54069900   -0.79975100
Se   22.17543000    4.80540000    6.70605000      1.298937   -0.65510800   -0.46599000
Se   22.95188000    4.88361000   14.34647000     -0.011872    0.01980800   -0.31639600
Se   17.08484000   10.59938000    9.88889000      1.219798   -0.49282400   -0.00700300
Se   21.71848000   13.96310000   15.51574000     -0.102759    0.23900700   -0.21711200
Se   18.37872000   16.04975000    8.34289000      0.657017   -0.29302300   -0.19052400
Se   22.32819000   16.33908000   15.81477000      0.499740   -0.34899700   -0.32508700
Se   21.21925000   23.24067000    8.37659000      0.739196   -0.15337400   -0.30387100
Se   22.90080000   23.05679000   19.20685000     -0.655930    1.19969700   -0.34932600
Se    4.45703000    3.45890000    6.98883000      0.186644   -0.44882900    0.80138400
Se    5.06541000    0.11136000   15.26190000      0.694386    0.20821900   -0.69117800
Se    4.20774000    4.64005000    3.56920000     -0.427381   -0.13653600   -0.83973600
Se    4.25864000    8.28946000   11.29662000     -0.592355    0.78016900   -0.92670400
Se    1.23245000   11.10904000    2.52018000      0.751987   -0.02233800    0.38175100
Se    4.77425000   14.55316000   14.63092000     -0.590570   -0.76605800    0.29973500
Se    4.53424000   16.80932000    1.81290000     -0.506475    0.43830400   -0.22341300
Se    3.45397000   16.80107000   13.31473000      1.091666    0.28734000   -0.43283700
Se    9.17101000    1.03287000    2.36305000      0.541727   -0.69179500    0.47128800
Se   10.79948000    1.17923000   14.35736000      0.002505    0.85605700    0.35576200
Se   10.16081000    9.60795000    2.88067000      1.112365    0.52550800    1.15592500
Se    8.80619000    8.97344000   16.83248000     -0.779970    0.00709100   -0.02893800
Se    9.50987000   12.87159000    4.65664000     -0.304406    0.64631800    0.29106400
Se   12.62891000   11.02642000   12.94082000     -0.493397   -0.74591300   -1.08936900
Se    9.76846000   19.31113000    2.08934000     -1.165610    0.31087000    0.22935400
Se    8.11987000   22.42704000   14.98178000      0.231004    0.14650400    0.43877600
Se   18.11743000    4.91641000    8.51382000      0.697911    1.03778000    0.10432100
Se   14.73664000    1.18859000   16.52301000     -0.174283    0.06757200    0.25499800
Se   16.56792000    7.33523000    4.08377000      0.171751   -0.35001100   -0.36993100
Se   13.12322000    7.44140000   15.25964000     -0.831252    0.24034600   -0.75282200
Se   16.86823000   12.49814000    1.77065000      1.242979   -1.14446200   -0.48733400
Se   18.04322000   18.26337000   14.81025000      0.693810   -0.98364000    0.43018600
Se   15.21417000   16.91382000    3.90341000      1.146729   -1.22060400   -0.64784600
Se   17.02598000   20.28888000   14.27862000     -0.652597    0.54713700   -0.54910400
Se   23.11191000    1.91330000    4.31575000     -0.194969    0.31870500    0.26684800
Se   21.94510000    0.99878000   12.03586000      0.631168   -0.20874100   -0.12513800
Se   23.69388000    8.18105000    5.01403000      0.406327    0.72543100    0.82725300
Se   21.60679000    7.01411000   13.53501000      0.125478   -0.20355500   -0.02648300
Se    1.62421000   16.05089000    4.41358000      0.568099    0.21747900    0.74554100
Se    1.46794000   12.10930000   14.93705000     -1.169866   -0.45957800    0.23313700
Se   22.90109000   20.72449000    5.76147000     -0.391873   -0.62556200    0.54689600
Se   20.70110000   21.27591000   10.48211000     -0.277618    0.62378600    0.73280400
Se    2.22499000    4.29090000    6.76361000      0.363287   -0.05789000   -0.99628400
Se    1.74635000    3.30134000   12.51913000      0.004684   -1.08969200    0.76237000
Se   21.97068000   11.30945000    5.28344000      1.397587   -0.11805100   -0.19381900
Se    1.44436000    8.74453000   14.38883000      0.208934   -0.07375500   -0.31756500
Se    1.80884000   14.91552000    1.70750000      0.143682   -0.38791800    0.14539900
Se    1.33921000   16.45562000   14.29141000     -1.210385    0.33832500   -0.04756000
Se    3.84544000   21.00646000    2.06751000      0.464827    0.17549200   -0.71009100
Se    5.14845000   17.46633000   16.79033000      0.802251    0.11925700    0.65441800
Se   11.03684000    3.06674000    5.44816000      0.055797   -0.50559000   -0.11182900
Se    8.42002000    2.29489000   13.29832000     -0.593440    0.21335100   -0.34276400
Se    6.30377000    8.56983000    3.52542000      0.217350   -0.02686500   -0.05053000
Se    8.34990000   11.07452000   13.21636000      0.362564    0.27042700    0.62676000
Se    7.04136000   14.58775000    2.35543000     -0.191228   -1.58127700   -1.18922200
Se    9.80186000   15.22087000   13.45441000     -0.024857   -0.07156200   -0.34053300
Se    7.29200000   22.26763000    9.17665000     -0.361541   -0.23497400    0.46215200
Se    6.02160000   19.89403000   16.02350000     -0.020809   -0.06603400   -0.34756600
Se   13.57212000    0.90123000    3.06622000      0.162407   -0.95704300   -0.61231900
Se   10.16350000    5.71375000   13.17940000     -0.516187    0.24302100    0.79743400
Se   13.19928000    9.67111000    0.89853000      0.269938    0.65078000    0.67802000
Se   15.79241000   10.24938000   14.29808000     -0.229089    0.31342800   -0.79551000
Se   10.10832000   16.70581000    5.80855000     -0.177311   -0.35044900    0.34148900
Se   14.14301000   16.91457000   11.77847000     -0.132030    1.01886300   -0.84291700
Se   14.72555000   21.24391000    1.14933000      0.025031    0.28812000   -0.31026200
Se   15.57771000   22.99762000   14.02340000     -0.195234   -0.17076000   -0.21893700
Se   17.93410000    5.99290000   19.08530000      1.501837    1.13138000    0.33302100
Se   14.77744000    5.58341000    9.69421000     -0.427996    0.93660000   -0.65004800
Se   19.96974000    8.42779000    2.29745000      0.256700   -1.03922200    1.84867700
Se    1.94082000   12.06124000   12.70341000      0.524773    0.88888100   -1.15173000
Se   20.76456000   17.03874000    3.81090000      0.474388   -0.51356200    0.08370700
Se   17.88609000   16.15043000   13.37113000     -0.099438    0.38151300    0.32248400
Se   19.69890000   22.11995000    3.89251000     -0.375677   -0.10120800   -0.00770800
Se   18.73553000    0.40489000   14.79338000      0.333438    0.67318400    0.11012300
