384
23.69824000 23.69824000 19.89960000
Ge    5.20489000    6.70601000   12.84345000      0.038656   -0.53155400    0.90177900
Ge    6.57456000    5.34883000    3.36093000      0.895095    0.04291200   -1.22918100
Ge    1.80177000   12.99794000    6.64656000      0.352264   -0.32727600    0.71568700
Ge    8.95709000   14.47198000   15.80824000      0.043821    0.06133000    0.13905800
Ge    5.00130000   15.13904000    9.98790000      1.121255   -0.32381200   -0.11863700
Ge    9.56995000   18.26367000   19.55427000     -0.219705    0.73495700    0.19411600
Ge    8.12984000   22.41574000   11.89362000      0.290579    0.61032600   -1.00744100
Ge    5.62677000    0.80806000    0.26343000     -0.695271    0.44841200   -0.22823500
Ge    9.17137000    5.52225000   10.81731000     -0.978381   -0.59729900    0.70220900
Ge   10.95655000    6.15617000   19.39505000     -0.270852    0.41870300    0.52241200
Ge   10.47802000    8.48958000   10.17907000     -0.434313    0.24862700    0.52476300
Ge   13.35649000   12.50316000   19.45662000      0.202945   -1.02149900   -0.09602900
Ge   11.61731000   18.31510000    8.93295000      0.807026    1.86497600   -0.53849700
Ge   12.50284000   15.89964000    0.76366000      0.529773    0.19982600   -0.11009000
Ge   10.95374000   23.20493000    9.25661000      0.201984    0.30396600   -0.53647000
Ge   16.43971000   22.34886000   18.86451000     -0.129427   -0.25729300    0.77974500
Ge   18.98293000    5.20922000   11.82945000     -0.289160    0.33153100   -0.50925300
Ge   19.82298000    8.77254000   17.40229000      0.082857   -1.00225300    0.14887300
Ge   19.67736000   11.70722000   10.01866000     -0.464337   -0.41669200   -0.63891600
Ge   18.10965000   11.35369000   18.07464000      0.895751    0.13305500    0.84459900
Ge   14.81366000   20.22256000    9.08613000      0.413614   -1.09691400    0.14952300
Ge   18.01973000   15.45184000   19.52526000     -0.050607   -0.25683200   -0.09356100
Ge   19.70347000    1.84339000   12.63831000     -0.062759    0.29150700    0.02912700
Ge   20.54328000    3.86436000    0.95657000     -0.675541    0.48539000    0.79025200
Ge   23.26185000    6.34810000    8.57891000     -1.006832   -0.37309800    0.67049800
Ge    2.31381000    3.06307000    4.20804000     -0.623492    0.38806900    0.67520300
Ge    1.84649000   10.12335000    9.61962000     -0.311342    0.73560200    0.47199100
Ge    0.72543000    9.51687000    0.23142000     -0.575778   -0.32624000    0.14837000
Ge   21.10611000   15.21244000    8.84780000     -0.121990    0.21786400   -0.45244200
Ge    0.84026000   14.45229000   19.43319000      0.467801    1.47811400    0.81634600
Ge   18.79089000    1.45768000    9.45045000      0.273292    0.50566400   -0.39724300
Ge    0.67929000   21.16638000    0.10334000      1.023730   -0.74226500    0.01918700
Ge    4.93428000    8.29495000    8.19507000     -0.004031   -0.07824600    0.30982500
Ge    1.58605000    6.47709000   18.93457000      0.481631   -0.56481200    0.43002800
Ge    1.88951000    9.71075000    6.10383000     -0.755123    0.89317800   -1.31795600
Ge    3.53518000   12.49392000   16.40954000      0.985249    0.19216700   -0.15932700
Ge    6.02514000   17.73549000    3.59643000      0.154999    0.07851800   -0.06203900
Ge   23.66200000   17.58319000   18.43963000     -0.407437    0.36459200   -0.20524300
Ge    4.62278000   20.38768000    9.06764000      0.486349   -0.24386700   -0.41598400
Ge    4.05208000   22.82720000   18.03632000     -0.732131   -0.58191400    0.23217700
Ge    9.58317000    2.54221000    7.37450000      0.837219   -0.31308400    0.39516000
Ge    6.62338000    8.26532000   18.72820000      0.767689    0.16812300    0.04937600
Ge    5.70131000   12.89751000    6.56297000      0.401927   -0.63198700    1.78630800
Ge    8.16829000    8.84207000    2.04392000      0.002117   -0.34836400   -0.72312500
Ge    7.84951000   18.24935000    7.03038000     -0.220853    0.75271000    1.13630400
Ge    4.34284000   19.38181000   19.21153000     -0.066047   -0.26848000   -0.00684200
Ge   11.10449000   22.27583000    6.12299000     -0.783950    0.46110900   -0.25176100
Ge   10.17852000    2.43906000   17.68284000      0.445046   -0.61399400    0.35868100
Ge   13.46610000    6.87895000    6.07379000     -0.282773   -0.52339900   -0.35259100
Ge   13.59127000    8.33123000   18.82931000      0.036855   -0.06160100   -0.33108000
Ge   15.58800000   12.65823000    6.36888000      0.302072   -0.38495200   -0.18272000
Ge   16.95018000   15.67429000   16.48791000     -0.827000    0.44318000   -0.36238600
Ge   12.61242000   16.26617000    4.87755000     -0.104829   -1.21740900    0.25515200
Ge   15.24491000   18.10490000   16.61159000      0.245819   -0.32297300    0.10525500
Ge   15.07987000    0.39177000   10.05537000      0.263872   -0.26711500   -0.14639000
Ge   16.46735000    4.27727000   18.41164000     -0.509972   -0.91606600    0.49956000
Ge   20.25163000    5.93357000    7.23901000     -1.624304    1.60428800    0.41814400
Ge   22.00318000    5.47759000   16.44083000     -0.511747    0.69317300    0.58896600
Ge   19.57698000    9.25191000    8.02901000      0.613116    0.02695600   -0.50205000
Ge   21.87526000   13.36774000   17.93335000      0.294947   -0.31461500   -0.92172400
Ge   19.20654000   17.94898000    7.10664000      0.384326    0.60513100    0.53852000
Ge   20.56861000   19.43779000   16.46343000      0.275396   -0.41802600   -0.44932700
Ge   19.82445000    0.65694000    5.33330000     -0.419420    0.38802300    0.16400400
Ge   20.52702000   21.01158000    1.15853000     -0.569956   -0.55768800   -0.43386500
Ge    5.62814000    3.05045000   10.79633000     -0.255075    0.01700300   -0.38442300
Ge    4.85064000    3.37972000   17.13317000      0.126972    0.52087200    0.02717100
Ge    3.21657000    6.24320000    5.05864000     -0.539251    0.98517200    1.02773000
Ge    3.13893000    9.85119000   12.72848000     -2.060845   -1.03766700   -0.20346900
Ge    2.82877000   17.19895000    6.53396000     -0.021031   -0.38256300   -0.08557300
Ge    1.43663000   14.53406000   15.82323000     -0.357103    0.18006900    0.74298600
Ge   22.75468000   19.95668000   10.11934000      0.794434    0.43743000    0.06058400
Ge    3.50024000   21.76410000   15.08596000     -0.550847    0.76734400    0.21343700
Ge   10.10294000    3.35863000    2.54162000      0.203334    0.42070400   -0.06807100
Ge    8.55087000    2.08472000   15.65469000     -0.357691    0.74963400    1.05573100
Ge    9.14522000   10.44501000    5.16037000      0.472513    0.03944300   -0.02079100
Ge    7.21130000   10.78715000   15.47646000      0.657345   -1.22489700   -0.46863700
Ge    9.41625000   14.49423000    6.72137000     -0.211031   -0.16814500   -0.39134300
Ge   15.48365000   11.32465000   16.43703000     -2.125913   -0.65938400    0.00396700
Ge    7.47627000   21.50750000    4.32082000      0.340530   -0.38623500    0.41884900
Ge    8.57087000   20.04057000   15.61470000     -0.856556   -0.00551600   -0.14453200
Ge   14.74032000    2.19251000    6.71605000     -0.005980   -0.87238000    0.42172700
Ge   12.88754000    2.70816000   15.70030000     -0.317486   -0.80977900    0.20848800
Ge   15.37238000    9.58550000    4.78502000      1.500555    0.60436700    0.11857000
Ge   15.46773000    7.84070000   15.39357000      0.767793    0.18982700    0.20349100
Ge   15.71300000   14.01466000    3.25274000     -1.205101    1.04531200    1.70209300
Ge   13.11273000   15.68046000   15.43272000     -1.643597    0.88819500    0.23548300
Ge   14.11557000   18.92329000   19.77575000     -0.626644    0.23978100    0.61238000
Ge   10.07815000   21.41304000    0.63076000     -0.240361    0.35681600    0.11824500
Ge   23.06893000    4.33004000    3.70143000     -0.069334    0.14807900    0.10252500
Ge   23.60704000    2.49931000   16.26388000     -0.293791   -0.01996000   -0.25067100
Ge   22.37102000    9.33936000    6.98460000     -0.213257   -0.51974600   -0.78570600
Ge   20.27504000    9.75439000   13.92064000      0.365161   -0.36365900   -1.97596600
Ge   23.04847000   16.09913000    5.66395000     -0.211331    0.29591900   -0.15397200
Ge   19.43011000   14.03728000   13.16286000      0.137952   -0.18807700   -0.16123600
Ge   20.33674000   20.59969000    5.66662000      0.072849    0.03543200    0.63964000
Ge   20.95185000   23.20289000   17.78215000     -0.737120   -0.11806500    0.56595400
Ge    6.40126000    4.55161000    5.68687000     -0.100323   -0.85417500    1.66565200
Ge    3.63032000    2.10689000   14.26760000      1.210099   -0.97680200   -4.67478600
Ge    5.29242000   10.77517000    3.44789000      0.107149    0.87261400   -0.36962200
Ge    7.67289000    8.74302000   12.78446000     -0.951915   -0.12412600   -0.43014800
Ge    5.36949000   15.11330000    0.29621000      0.582278   -0.27989000    0.54280400
Ge    4.81746000   12.76854000   12.97966000     -0.346276   -0.28443500    0.73211400
Ge    4.57100000   22.74858000    6.13184000      0.212426   -0.71648200   -0.43152000
Ge    6.10415000   21.15552000   13.33611000      0.011522    0.48476100    0.55173900
Ge   15.02522000    6.00205000    2.49685000      0.428533    0.34944900    0.06862700
Ge   13.19246000    0.30429000   13.16233000      0.696456   -0.07827300   -0.39359800
Ge   11.03821000   10.19325000   19.65014000     -0.719441   -0.26927600    0.32008200
Ge   14.18358000    9.03235000   12.70444000     -0.909129    0.75412700    0.35333800
Ge   10.73535000   13.55263000    2.49515000     -0.600445    0.33223000    0.42761800
Ge    8.40373000   17.25727000   10.76842000     -0.507824   -0.85716800    0.31841900
Ge   12.43252000   22.68050000    1.31146000      0.865208    0.66786100    0.77558000
Ge   10.35290000   22.37498000   14.02718000      0.910983   -0.28938000   -0.05942900
Ge    0.67487000    2.06701000   18.99803000      0.137713   -0.53078000   -0.04735600
Ge   12.60415000    6.27394000   12.99654000      0.790650   -0.35973200    0.09156100
Ge   17.43905000    8.48682000   19.76447000      0.143169   -0.29416600    0.40816400
Ge   12.65513000    6.20564000    8.52285000      1.367085    0.58992900   -0.00923400
Ge   21.01603000   13.34539000    2.57895000     -1.227320   -0.26237000    1.41533800
Ge   16.07933000   17.01609000    7.87641000     -1.292740    0.85845500    0.54438300
Ge   16.99558000   21.28236000    3.08621000      0.304927    0.10623000   -0.71119300
Ge   18.75411000   21.94439000   13.57960000      0.984504   -0.97684800    0.07478300
Ge    0.96029000    1.69954000    2.39013000     -0.264858   -0.30730500    0.02169800
Ge   22.91704000    2.31725000   10.19676000     -2.195086    0.60228100    0.11243100
Ge   22.52868000   10.12869000    2.95701000      0.246401   -0.71950800    0.90321000
Ge   22.85191000    9.01857000   13.27758000      1.101605   -0.08110700   -0.34758800
Ge    2.76295000   13.26203000    3.75730000     -0.565666    0.29204800   -0.67536900
Ge    0.33634000   16.40961000   11.72128000      0.026952   -0.71065600   -0.75708600
Ge    0.54747000   21.36268000    3.91782000     -0.978315    1.45716600    0.52107500
Ge   20.87547000   17.90817000   12.19940000      0.244767    0.13983900    1.24437300
Se    2.67521000    0.43799000    0.13085000      0.451876   -0.36306400   -0.44507100
Se    1.29933000    1.45497000    9.52345000      1.207201    0.59018300    0.01034300
Se    0.70191000    7.17875000    1.23220000     -0.006727    0.55018400   -0.08828400
Se   23.44539000    9.37442000   10.80021000     -0.353634   -0.28318500   -0.06997400
Se   22.06635000   11.86511000    1.12132000      0.445150   -0.32348100   -0.27447300
Se    1.02420000   13.97578000    8.87656000      0.179756    0.43200500    0.04768000
Se    2.15111000   19.85259000    3.08804000     -0.251910   -1.91414100    0.42430300
Se   23.47773000   18.69010000   12.34095000     -0.816109    0.72071200   -0.22330100
Se    6.92436000    3.24126000    1.65325000      0.036438   -0.31017200    1.31238900
Se    5.78784000    3.44305000   13.29205000     -0.058162    0.13116700    0.06769400
Se    9.34586000    4.77579000    4.74351000      1.064043    1.01262200    0.27638000
Se    7.73918000    8.76938000    9.81666000      0.819201    1.44442500    0.03437300
Se    8.34468000   10.32549000    0.16047000     -0.567505    0.42058300   -0.16574600
Se    7.28494000   14.79086000   11.23019000     -0.111107    1.02169600   -0.05918000
Se    7.33347000   19.82014000    2.31692000      0.036071   -0.14637400    0.34134100
Se    9.96330000   20.51560000   11.77321000     -0.112138    0.87037700   -0.16849400
Se   12.65381000    0.83560000   19.53391000      0.976791    0.14636600    1.45861000
Se   12.70102000    3.04521000   11.86066000      0.239312   -0.32935700    1.14205000
Se   11.03493000    8.50738000   17.68352000      0.495743    0.07743100    0.18983000
Se   10.96927000    9.77296000    6.67815000     -0.622933   -0.05414200    0.65608000
Se   13.17016000   13.60509000    1.70571000      0.727215    0.46932400    0.24035800
Se   13.00865000    8.80250000    9.24994000     -1.472048    0.14990700    0.53840200
Se   15.04882000   16.72500000    1.29072000     -0.264626   -0.16804400    0.08111700
Se   12.52405000   18.70330000   11.33172000      0.001057   -0.58436100   -0.31226100
Se   19.37124000    3.52393000    3.93568000      0.417040    0.11841800   -0.46990600
Se   13.98545000    4.04687000   14.02685000     -0.451144    0.05808300   -1.46238000
Se   16.01231000    5.29765000   16.27943000     -0.242158    0.16178300   -1.13224900
Se   20.20480000    4.35292000   13.84762000     -0.515880   -1.12869600    0.37124100
Se   19.83993000    9.41840000    0.32086000     -0.118624    0.42518100   -0.86645000
Se   16.66141000   19.75335000    7.33749000      0.546607   -0.75052700    0.04081700
Se   19.78739000   17.14391000    0.56584000      0.381735    0.37387500    0.36630000
Se   19.59945000   19.22198000   10.60777000     -0.581121   -0.73310200   -0.77900300
Se    3.08216000    0.79074000    4.89727000     -0.660401   -0.30566700    0.14096900
Se    2.30129000    5.42193000   12.05868000      1.107642   -0.10488500   -0.98755400
Se    6.00657000   11.66754000    0.77924000     -0.474343   -0.24612100    0.65699500
Se    4.84084000   12.56499000   10.58921000     -0.234370    0.14727300   -0.05121200
Se    3.80493000   13.09444000    0.78090000      0.431752    0.07729000    0.34051900
Se    3.50218000   17.02771000   10.91744000     -0.789041   -0.45332500    0.25602800
Se    5.50435000   21.65282000   19.85994000      0.452170    0.40228500   -0.26672800
Se    4.81129000   19.61958000   11.88438000      0.033691    0.24324600   -0.32180700
Se   11.56488000    6.45214000    2.15582000     -0.066541    0.81527700   -0.41963600
Se    8.58335000    3.11484000   10.38902000     -0.850940    0.67806400    0.81075500
Se   10.38519000   12.72302000   18.98386000      0.578663   -0.19595100    0.08017000
Se   10.66525000   10.79743000   11.20431000      0.852720    0.77092600    0.80453300
Se   10.87824000   16.21259000    2.84936000      1.300864   -0.91591200   -0.34385500
Se   12.19671000   15.04721000   12.92187000     -0.105147    0.29180400    0.71364100
Se   11.50818000   23.67861000   17.79682000     -1.279030    0.29929800   -1.03804300
Se   10.08392000    0.72547000   11.19111000     -0.309146   -0.98754800    0.54525800
Se   11.87617000    4.22601000   17.31297000      0.035159   -0.39837800    0.00715900
Se   17.87231000    8.07148000    9.36888000     -0.797674    0.61095100    0.15916500
Se   16.60415000    9.12654000    2.41055000      0.033607    0.67524000   -0.02218100
Se   18.01981000   13.47370000   10.48264000     -0.600416    0.56908600    0.78682300
Se   18.63819000   14.18949000    2.17704000     -0.021520    0.72374300    0.09346100
Se   13.74504000   15.53827000    8.15126000      1.356473   -0.71525900   -0.22547200
Se   18.34365000   22.35860000    0.88263000     -1.121480   -0.03940500    0.39754700
Se   17.19537000    0.61977000   11.13039000     -0.309526   -0.35638600    0.90541800
Se   23.17805000    3.23716000    1.04720000      0.695297    0.06113700   -0.00287100
Se   21.97773000    4.65357000   10.41818000      0.943913   -0.22020600   -0.23098700
Se   21.23041000    6.03635000    2.16303000      0.330835   -0.44909300    0.00904500
Se   20.88321000   11.60579000   12.08885000     -0.066507    0.09033900    1.02049500
Se   22.65291000   14.60060000    3.76147000      0.494278   -0.31182000   -0.73455100
Se   21.20196000   15.57102000   11.28205000      0.549845    0.00201700    0.13709300
Se   23.00216000   22.19799000    1.98037000      0.674085    0.43411300    1.25588100
Se   21.94794000    0.55983000   15.70298000      0.080168   -0.71215700   -0.39062700
Se    3.68617000    4.77215000    9.77461000      0.261526   -0.05895800    1.01644900
Se    5.01425000    6.42448000   18.07992000     -0.674883    0.28469800    0.67748300
Se    3.80272000   11.85160000    8.10027000      0.462444    0.58572900   -1.17164700
Se    3.81267000    7.51616000   15.47012000      0.347293   -0.08734000   -0.64368100
Se    5.96853000   20.00250000    6.40977000      0.295894    0.44765500   -0.33239900
Se   22.27707000   15.40951000   19.31747000      0.306462    0.12905100    0.13917600
Se    0.91046000   21.89709000   11.09210000     -0.378980   -0.89545400    0.16316500
Se    2.71764000   20.28518000   17.65367000     -0.065163    0.48834900    0.23474000
Se    7.64024000    3.90929000    7.83416000     -0.461001    0.16777800   -0.40564500
Se    5.67789000    4.70147000    0.34901000     -0.419856    0.35230400   -0.85511600
Se    7.26611000   11.11741000    6.70782000     -0.117442   -0.92021400   -0.14098000
Se    3.92751000    9.72492000    0.11294000     -0.096012    0.40508300   -0.99577700
Se    6.46510000   18.12484000    9.46609000      0.308244   -0.19289800   -0.94647900
Se    6.60705000   15.95172000   18.13761000     -0.649845    0.24390700   -0.28234900
Se    9.98918000   19.91079000    7.69951000     -0.036352   -0.13549000    0.48406800
Se    9.25586000    2.37573000    0.16081000     -0.338662    0.33679700   -0.81027300
Se   14.30380000    2.62942000    9.52866000     -0.089056    0.44096100   -0.75845300
Se    8.24622000    4.82445000   18.40689000      0.760442   -0.34136200    0.61599900
Se   10.37315000    5.89757000    8.86120000     -0.108812   -0.21906400   -1.10697300
Se   17.25268000   12.76535000   16.31249000      0.927929    1.49135300   -0.76845800
Se   13.56656000   18.76257000    7.36743000     -0.698392   -0.27135200    0.96878900
Se   14.73991000   16.18075000   18.37948000      0.307696    0.15219100   -0.30636600
Se   15.82712000   23.52186000    7.87472000     -0.262026    0.13388600   -0.86217000
Se   18.71953000    2.17812000   16.77164000     -0.154543   -0.52989100    0.57634600
Se   17.03265000    3.53025000   12.07380000      0.198664    0.31264400    0.57331900
Se   22.03858000    3.76473000   18.10080000     -0.271780    0.15983900   -0.23585000
Se   18.35296000    9.24567000   12.45521000     -0.159151   -0.40552900    0.70636900
Se   20.40775000   10.70706000   15.98063000      0.121986    0.91287400    0.85940600
Se   15.96907000   17.98892000   10.37061000     -0.394292    0.15987900   -0.17038700
Se   19.63751000   13.29118000   18.82016000     -0.870152    0.03933200    0.38563000
Se   18.83163000   23.13361000    7.90826000     -0.182648    0.19256400   -0.35620600
Se   18.61574000   19.17758000    1.03682000     -0.015435    0.33315500    0.26227200
Se    5.03356000   23.04775000    8.77715000      0.174435    0.13618900    0.41638100
Se    3.91507000    2.99836000   19.47379000      0.518693    0.02005300    0.67670900
Se    6.90356000    6.72025000   10.33583000     -0.541436   -1.40555800    0.13272900
Se    4.39210000    7.49754000    0.52810000      0.572440   -0.98809300    0.25607500
Se    5.23617000   16.28033000    6.70897000     -0.410994    0.16792600   -0.11037100
Se    6.33197000   12.02294000   17.13023000     -0.001352    0.58561400    0.41008600
Se    2.42581000   19.17388000    8.55323000      0.108273   -0.26014300   -0.57996100
Se   23.16413000   18.99627000    0.54970000      0.046042   -0.33430700   -0.42980700
Se    8.93436000    0.25182000    7.25625000      0.516878   -0.96057200    0.30763500
Se   12.42357000    4.38627000    1.77016000      0.370424   -1.20345600    0.09994600
Se   11.61077000    2.17818000    9.30568000     -0.305040   -0.26698600   -0.14975700
Se    8.59168000    6.78983000    0.83316000     -0.624186   -0.02184300   -0.46223400
Se   11.24657000   13.52225000    8.12936000     -1.042719    1.45374800    1.59780700
Se    8.97678000   14.21727000    0.80635000     -0.395171   -0.15522900   -0.40812500
Se   13.76164000   22.45386000   11.09578000     -0.846871    0.17991400   -0.07268100
Se   13.77505000   13.23063000   16.90405000      0.510190    0.31779200   -0.28087700
Se   16.96164000    2.96806000    8.26427000      0.385406   -0.43553200   -0.03504200
Se   17.64462000    5.26957000    1.46148000     -0.129786   -0.38228400    0.48601400
Se   15.07331000    8.05777000    8.61834000      1.487499   -1.43276800   -0.41699300
Se   15.92977000    9.18796000   17.72944000     -0.293269    0.04997500    0.07576000
Se   14.97153000   13.39192000    8.53459000     -1.040056    0.94021100    0.32399800
Se   16.35611000   12.89626000   19.35954000     -0.759248   -0.10207900   -0.17372400
Se   14.57254000   19.15144000    4.02042000      0.114014    1.11536600   -0.07572500
Se   19.70245000   21.08248000   18.07335000      0.296668    0.17938800   -0.18133800
Se   21.48370000    1.82958000    7.87807000      0.497878    0.43254600    0.64014500
Se    0.60471000   23.64506000   16.12461000     -0.869602    0.54062900    0.05403200
Se   20.81333000    7.36168000    9.46162000      0.514025   -0.34094000   -1.04628000
Se   23.66851000    7.31029000   17.05547000     -1.048691   -0.00206700   -0.37558700
Se    0.23101000   11.44476000    7.87148000     -0.125026   -0.89182400   -0.06760000
Se   21.94326000    8.00376000   18.61955000      0.089278    0.73388500    0.27986600
Se   21.66029000   17.37334000    7.56702000     -1.055819    0.51498600    0.36036600
Se   19.47668000   17.04351000   18.08952000      0.114372    0.14749300   -0.44170200
Se    1.05497000   22.92264000    9.02536000     -0.203334   -0.33878600   -0.51358300
Se    3.20528000   23.37109000   13.01779000      0.366752    0.48442600    0.71878500
Se    2.26642000    8.30557000    8.00712000      0.581891   -1.71171200    0.57041900
Se    2.23963000    8.81703000   18.22085000      0.037592    0.72074200   -0.43417700
Se    0.41207000   16.22619000    8.65126000      0.354684    0.15157500   -0.00984900
Se    1.07986000   12.59078000   18.18209000      0.055357   -1.34214200   -0.65048000
Se    2.62853000   19.39042000    5.62165000      0.077769    0.93201400    0.46690000
Se   23.07991000   19.07756000   16.45442000      0.191671   -0.10049100    0.54666700
Se    5.75042000   23.08187000    3.75598000      0.288840    0.09784200    0.52106300
Se    6.29712000    1.25546000   17.24326000      0.309753   -0.42628400    0.23269500
Se   10.78037000    6.91213000    5.32716000     -0.169851   -0.37942600    0.12027600
Se    6.21941000    7.85826000   15.71695000      0.426168    0.04521400   -0.48115900
Se    7.22520000   14.52568000    8.03783000      0.131396   -0.39051400   -0.42021800
Se    8.02251000   19.50213000   12.60757000     -0.029325   -0.87308600    0.76425300
Se    8.14740000   16.13473000    3.58834000     -0.740111    1.52375600    0.81180300
Se    9.17306000   16.81029000   15.10643000      0.111650   -0.05550800    0.45825400
Se   15.05246000   21.68552000    5.50740000     -0.250691   -1.17949000    1.14101100
Se   14.12212000   22.56316000   15.90702000      0.556674    1.39445400   -0.46751000
Se   13.18583000    8.86283000    4.59377000     -0.308039   -0.56928700   -0.13065900
Se    9.82790000    8.20474000   13.70311000      0.568977   -0.63923900   -0.42873000
Se   14.11545000   11.95758000    4.44599000      0.910694    1.02827300    0.06768400
Se   15.23522000   15.37954000   14.56908000      1.504064   -0.23029400   -0.32621200
Se   12.31552000   18.53503000    4.26595000     -1.051366    1.52016100   -0.25784700
Se   15.87262000   19.81028000   18.42569000      0.713011   -0.16744200   -0.78098700
Se   17.78234000    1.85333000    4.41418000      0.207698   -0.29513700    0.15351800
Se   18.72234000    0.64761000   18.83228000      0.840320    0.75371800   -1.30875900
Se   19.84906000    8.16801000    5.67108000      0.266988   -0.86356300    1.23769200
Se   19.70263000    6.57640000   16.22390000      0.305964   -0.22639000    0.04501700
Se   19.87650000   11.95807000    4.57553000     -0.925037    0.65253800   -0.99471600
Se   16.99803000   13.24249000   12.73635000      0.650334    0.20026600   -0.54471700
Se   19.07400000   18.38473000    4.63117000     -0.255732    0.33815500   -0.28459500
Se   20.87604000   20.36569000   14.16802000     -0.531373    0.68503600    0.02525200
Se    5.56532000    6.80908000    6.20738000     -0.513647    0.80360600    0.11314800
Se    2.69733000    2.36943000   16.18501000     -1.041112    0.79346900    3.33018200
Se    3.03217000    9.58001000    3.48822000     -0.229175   -0.05842500   -0.19460900
Se    4.65346000   10.40772000   14.31867000      1.165491    1.56260700    1.37173500
Se    5.03007000   14.40281000    4.92978000     -0.469784    0.84164300   -0.70867500
Se    2.09531000   16.24257000   18.19556000     -0.366223    0.25504400    0.23098400
Se    1.09010000   23.04421000    5.71094000      0.503650   -0.18522500   -0.85985000
Se    3.23590000   19.80834000   13.65682000     -0.393013   -0.78387000   -0.58470300
Se   12.55637000    0.60766000    6.34106000      0.029661    0.84715500   -0.01050100
Se    8.12574000    5.00993000   16.17866000     -0.128466   -0.57503200   -0.93819400
Se   12.12366000   12.05375000    6.80659000      0.671333   -1.89041300   -1.18522300
Se   11.43587000   13.06746000   16.82597000     -0.978060   -0.20549200   -0.93511300
Se   10.13579000   16.56865000    8.97803000     -0.747826   -1.44014300    0.17637000
Se   11.43067000   19.88556000   19.10997000      0.164061   -0.41911000   -0.60622000
Se   10.10213000   22.55993000    3.68904000     -0.523020   -0.20991000    0.46237500
Se    8.03286000   20.74479000   19.18977000      0.238916   -0.51216200   -0.89736300
Se   14.93833000    5.18044000    4.91329000     -0.432441   -0.40133800    0.72865600
Se   14.41113000    6.03924000   18.60205000     -0.307546   -0.20385700    0.32380700
Se   16.68865000   10.49858000    7.14572000     -0.681552   -0.19202300   -0.68115000
Se   17.46747000    7.41929000   13.86290000      0.566740   -0.19824000   -0.78507700
Se   17.03467000   14.32838000    5.62649000     -0.086151   -0.35964300   -0.72709700
Se   13.03474000   18.48138000   15.85326000      0.031671   -0.54118800   -0.23836600
Se   15.43274000   23.27933000    4.00299000      0.056756    1.80947200   -1.09095600
Se   17.56992000    4.13243000   14.48483000      0.209786   -0.41619200   -0.68455000
Se   22.17874000    4.87429000    6.69907000      1.321823   -0.76751100   -0.55213700
Se   22.96685000    4.89164000   14.34182000      0.352512   -0.09351200   -0.84906900
Se   17.09411000   10.58435000    9.84351000      1.014816   -0.56273300    0.12922300
Se   21.72453000   13.99535000   15.42417000     -0.015467    0.12683700    0.34628700
Se   18.31521000   16.12278000    8.37479000      0.760739   -0.88719700    0.04726100
Se   22.34597000   16.35819000   15.86694000      0.494682   -0.37745300   -0.57240900
Se   21.22121000   23.24837000    8.37637000      0.277661   -0.60007900   -0.30991900
Se   22.91480000   23.01015000   19.23133000     -0.979467    1.42592600   -0.84716600
Se    4.45075000    3.48822000    7.00443000      0.072729   -0.35954500    0.74590000
Se    5.08168000    0.11622000   15.21422000      0.448015    0.37225700   -0.60903900
Se    4.22449000    4.68077000    3.56127000     -0.609639   -0.67102500   -1.16899600
Se    4.28056000    8.28616000   11.29546000     -0.421370    0.57295600   -1.01782200
Se    1.23028000   11.12936000    2.59168000      0.804406   -0.08877700    0.40233900
Se    4.74705000   14.56553000   14.66676000     -0.549346   -0.94537800    0.17349600
Se    4.52441000   16.78283000    1.79232000     -0.301818    0.85502500    0.29744800
Se    3.46469000   16.82167000   13.28957000      0.806074    0.14603000   -0.13357000
Se    9.21344000    1.08103000    2.34330000      0.437543   -1.07294500    0.36831100
Se   10.75865000    1.16826000   14.38225000      0.090346    0.89746800    0.33112500
Se   10.17400000    9.56278000    2.93109000      0.519612    0.38642800    0.87318000
Se    8.77744000    8.97468000   16.84960000     -0.638440   -0.00618600   -0.03983200
Se    9.49487000   12.84379000    4.69332000     -0.213544    0.74457500    0.08464800
Se   12.66059000   11.05163000   12.94048000     -0.521382   -0.78427100   -1.02962300
Se    9.73717000   19.32683000    2.06124000     -0.613635   -0.18725100    0.41295400
Se    8.16079000   22.48117000   14.99322000      0.008505   -0.10934500    0.47956300
Se   18.13982000    4.95164000    8.53896000      0.573451    0.62361900   -0.04382600
Se   14.75461000    1.19413000   16.54860000     -0.400573   -0.23630200   -0.02817600
Se   16.60774000    7.37346000    4.08853000     -0.044505   -0.64807000   -0.53579900
Se   13.11779000    7.40215000   15.23104000     -0.872152    0.35420600   -0.65020400
Se   16.90236000   12.55130000    1.76936000      1.034047   -1.70295900   -0.43878900
Se   18.10400000   18.29522000   14.76519000      0.589248   -1.08645000    0.44366900
Se   15.21724000   16.94732000    3.87621000      1.092617   -1.11918500   -0.59642100
Se   17.02949000   20.28961000   14.25350000     -0.731469    0.51450400   -0.46387700
Se   23.06792000    1.93434000    4.25283000     -0.355865    0.05278900    0.62709100
Se   21.96365000    0.95530000   12.07147000      0.568754    0.09032200   -0.45382800
Se   23.67738000    8.23178000    5.01555000      0.375196    0.52031300    0.76767500
Se   21.59878000    6.97170000   13.51389000      0.338748    0.29068200   -0.04814200
Se    1.57257000   16.12123000    4.45318000      0.448739    0.09550000    0.68066300
Se    1.47765000   12.09447000   14.93856000     -1.005459   -0.47082700    0.20936400
Se   22.89816000   20.77461000    5.80700000     -0.251573   -0.49800800    0.24249600
Se   20.60582000   21.29188000   10.53305000      0.424718    0.64253700    0.73928600
Se    2.15726000    4.20337000    6.74512000      0.725391    0.16126800   -1.13944700
Se    1.70624000    3.27533000   12.54416000      0.200163   -0.46446700    0.61832700
Se   21.93260000   11.30922000    5.29013000      1.392003   -0.08055300   -0.33476800
Se    1.47097000    8.64085000   14.41245000      0.100977    0.25882400   -0.72848000
Se    1.82002000   14.89145000    1.72978000      0.028807   -0.28556300   -0.00503800
Se    1.32328000   16.42252000   14.25859000     -0.972056    0.57405500   -0.16791300
Se    3.80915000   21.00874000    2.03438000      0.776424    0.38109600   -0.72091800
Se    5.15722000   17.46913000   16.81145000      0.859122    0.12836000    0.54065800
Se   11.06406000    3.01316000    5.47691000      0.064109   -0.39255400   -0.15737200
Se    8.43094000    2.28967000   13.33461000     -0.477054    0.11105100   -0.50563800
Se    6.26841000    8.49197000    3.47091000      0.206215    0.12751200   -0.00814400
Se    8.40773000   11.09708000   13.21780000      0.266806   -0.03481300    0.68728300
Se    7.03946000   14.55928000    2.40587000     -0.237010   -1.47300000   -1.37351900
Se    9.78899000   15.24056000   13.43481000      0.142562   -0.27877100   -0.54900100
Se    7.28182000   22.31984000    9.25100000     -0.279465   -0.33046700    0.30229400
Se    5.99120000   19.90885000   16.01661000      0.414974   -0.06014500   -0.38506800
Se   13.53112000    0.85373000    3.08705000      0.077360   -0.87034400   -0.75622800
Se   10.10138000    5.73030000   13.17327000     -0.273612    0.19136700    0.85757300
Se   13.21062000    9.64133000    0.99555000      0.258281    0.35320900   -0.00550100
Se   15.80118000   10.30798000   14.29520000     -0.418724    0.09282400   -0.83204200
Se   10.08965000   16.74743000    5.79250000     -0.049695   -0.34252800    0.30457600
Se   14.12437000   16.91031000   11.82897000     -0.106574    1.17889000   -0.94890500
Se   14.75094000   21.22481000    1.14869000     -0.109770    0.36828800   -0.17984300
Se   15.58481000   22.95375000   13.97341000     -0.548430   -0.06480700    0.30953200
Se   18.00987000    5.96747000   19.10761000      1.153641    0.77750000    0.50260800
Se   14.80580000    5.58314000    9.69200000     -0.445981    0.98305900   -0.49034600
Se   19.99936000    8.40731000    2.29764000      0.152190   -0.87091500    1.56563600
Se    1.98409000   12.08720000   12.70735000      0.497054    0.71243400   -0.91735000
Se   20.79528000   17.09603000    3.78216000      0.535706   -0.57692600    0.12258600
Se   17.82207000   16.15762000   13.40894000      0.061493    0.32280100    0.30774500
Se   19.70978000   22.13194000    3.88985000     -0.378956   -0.06761400   -0.39545300
Se   18.76053000    0.40467000   14.80386000      0.155654    0.76871600    0.17101200
