384
23.69824000 23.69824000 19.89960000
Ge    5.20564000    6.70211000   12.90751000     -0.067613   -0.31420600    0.70595100
Ge    6.58629000    5.33566000    3.33628000      1.026266    0.06375800   -1.26415900
Ge    1.77287000   12.96664000    6.65808000      0.662893   -0.10753300    0.29754700
Ge    8.98952000   14.46243000   15.79560000      0.025495   -0.31150700    0.26232300
Ge    5.02699000   15.19313000    9.99603000      0.991225   -0.48238000   -0.08235900
Ge    9.56344000   18.22136000   19.53424000     -0.000976    1.10250900    0.11937000
Ge    8.15019000   22.38203000   11.95547000     -0.083341    1.10525100   -1.04412000
Ge    5.60568000    0.82092000    0.26317000     -0.879597    0.42873900   -0.34044900
Ge    9.17797000    5.47595000   10.83032000     -0.854589   -0.26642200    0.28302400
Ge   10.90251000    6.17211000   19.35473000     -0.128427    0.36008100    0.58493400
Ge   10.46396000    8.47664000   10.18479000     -0.524204    0.13682800    0.51505300
Ge   13.32696000   12.47822000   19.45629000      0.149353   -0.87264000   -0.17152900
Ge   11.60097000   18.36525000    8.97786000      0.896517    1.76372600   -0.81543100
Ge   12.49737000   15.87954000    0.81001000      0.300114    0.37839800   -0.46817600
Ge   10.92793000   23.21415000    9.24542000      0.466222    0.10036100   -0.65793200
Ge   16.47159000   22.25170000   18.85047000     -0.281974    0.45278400    0.60212700
Ge   19.02211000    5.22182000   11.83757000     -0.552940    0.35036400   -0.48328500
Ge   19.81589000    8.73409000   17.44851000      0.159537   -0.83842800    0.08351600
Ge   19.66478000   11.74217000   10.01324000     -0.386156   -0.38743300   -0.74240500
Ge   18.14651000   11.38437000   18.10026000      0.735249   -0.22396800    0.83496100
Ge   14.85841000   20.22351000    9.08616000      0.098173   -0.97999100    0.24215400
Ge   17.97627000   15.39604000   19.54567000      0.218122    0.06298300   -0.15191000
Ge   19.69415000    1.83182000   12.64035000      0.124766    0.19530600   -0.01775600
Ge   20.48675000    3.83195000    0.98158000     -0.635181    0.44620300    0.84503100
Ge   23.26585000    6.33172000    8.55643000     -0.979696   -0.29463100    0.79566900
Ge    2.29633000    3.06082000    4.22164000     -0.391957    0.39697600    0.73644400
Ge    1.88356000   10.18213000    9.63204000     -0.396693    0.33658400    0.37143900
Ge    0.75700000    9.54594000    0.22528000     -0.571254   -0.78934300    0.36315600
Ge   21.09658000   15.21338000    8.76598000     -0.269258   -0.34474400    0.28460300
Ge    0.83100000   14.55086000   19.41172000      0.309881    0.77459100    1.00649200
Ge   18.78524000    1.45281000    9.37642000      0.279397    0.45022400   -0.13052300
Ge    0.70968000   21.18043000    0.14222000      1.167969   -1.06608000   -0.43550500
Ge    4.93650000    8.34785000    8.20821000     -0.125134   -0.14137900    0.12186200
Ge    1.64037000    6.44092000   18.91812000      0.133529   -0.64706600    0.58634700
Ge    1.85906000    9.70081000    6.08401000     -0.621466    0.85551200   -0.96479800
Ge    3.58187000   12.49078000   16.40995000      0.769955    0.13692800   -0.33968300
Ge    6.07455000   17.81564000    3.62904000      0.054304   -0.25429500   -0.26824300
Ge   23.57872000   17.52766000   18.38584000     -0.149269    0.75476600    0.00548200
Ge    4.64137000   20.34945000    9.09162000      0.340683   -0.17714900   -0.43554100
Ge    3.97049000   22.82415000   18.07022000     -0.570571   -0.55929100    0.08656400
Ge    9.62549000    2.51366000    7.39705000      0.938426   -0.28783700    0.24716100
Ge    6.62445000    8.24511000   18.68755000      0.703655    0.26365800    0.01363200
Ge    5.72960000   12.92778000    6.59509000      0.257905   -0.39005600    1.53563600
Ge    8.14793000    8.82390000    2.00955000      0.321160    0.17161100   -0.05596500
Ge    7.83975000   18.26142000    6.98911000     -0.169623    0.73656900    1.16175200
Ge    4.38327000   19.39393000   19.23742000     -0.250593   -0.53443600   -0.08125900
Ge   11.11737000   22.29902000    6.08809000     -0.799568    0.29213500    0.07989600
Ge   10.10576000    2.48392000   17.72999000      0.786417   -0.68988400   -0.05586400
Ge   13.48051000    6.89657000    6.08409000     -0.322499   -0.46690600   -0.41300200
Ge   13.56978000    8.29917000   18.79954000      0.027392    0.42556800    0.10503900
Ge   15.61979000   12.63776000    6.33079000     -0.557249   -0.71279800    0.78572400
Ge   16.90145000   15.65216000   16.44919000     -0.386659    0.43376400   -0.09413000
Ge   12.55916000   16.24787000    4.83292000      0.193422   -1.02685000    0.45936100
Ge   15.22623000   18.06030000   16.60141000      0.573927   -0.23223800    0.24337000
Ge   15.09732000    0.42248000   10.03701000     -0.207254   -1.02848100    0.08152100
Ge   16.43783000    4.28665000   18.40736000     -0.121946   -0.63283100    0.76234700
Ge   20.20335000    5.98579000    7.17259000     -1.059384    1.35844600    0.44879900
Ge   22.07241000    5.44870000   16.39927000     -1.046287    0.69942400    1.18465700
Ge   19.62573000    9.27828000    8.02792000      0.149997   -0.04766900   -0.31475700
Ge   21.88319000   13.34311000   17.93447000      0.422921   -0.15334500   -1.13141900
Ge   19.16564000   17.93465000    7.14661000      0.429486    1.03723900    0.11271500
Ge   20.58067000   19.42669000   16.46469000      0.130040   -0.24433800   -0.04895300
Ge   19.81691000    0.62703000    5.33852000     -0.456977    0.50136300    0.18045500
Ge   20.51848000   21.02728000    1.15180000     -0.526529   -0.62061000   -0.50202500
Ge    5.63298000    3.01225000   10.84918000     -0.328270   -0.02284000   -0.81863000
Ge    4.89497000    3.40170000   17.09101000      0.046143    0.24470400    0.49427000
Ge    3.28225000    6.26342000    5.00977000     -0.795116    1.11358700    1.30121100
Ge    3.12821000    9.81721000   12.70345000     -1.672198   -0.54065700    0.42496600
Ge    2.79820000   17.13391000    6.61967000     -0.003061    0.22533100   -0.25848300
Ge    1.37031000   14.53888000   15.81905000     -0.397681   -0.04618500    0.75263900
Ge   22.76583000   19.94113000   10.13612000      0.518630    0.63779000    0.40876500
Ge    3.50461000   21.81029000   15.05438000     -0.642856    0.80469000    0.51450900
Ge   10.05065000    3.30082000    2.56930000      0.735155    1.24783600    0.15439500
Ge    8.55763000    2.09124000   15.67571000     -0.495802    0.59788600    1.08527800
Ge    9.12434000   10.41833000    5.15233000      0.644006   -0.10354400    0.15706000
Ge    7.20280000   10.76361000   15.48407000      0.542330   -0.85457200   -0.45394400
Ge    9.46674000   14.48650000    6.65178000     -0.206861   -0.00054400    0.17905000
Ge   15.51588000   11.30724000   16.46281000     -2.084584   -0.59071700   -0.27430000
Ge    7.46110000   21.45990000    4.25977000      0.535127   -0.32045700    0.82245500
Ge    8.61773000   20.06848000   15.60396000     -1.111610    0.06365400   -0.07073800
Ge   14.75675000    2.12980000    6.74252000      0.065789   -0.68447300    0.22731400
Ge   12.90305000    2.71856000   15.67382000     -0.226972   -1.06024900    0.20623000
Ge   15.44773000    9.61812000    4.74727000      0.214677    0.28555600    0.18246400
Ge   15.46131000    7.81660000   15.37840000      0.857540    0.25988000    0.11347200
Ge   15.67124000   14.03627000    3.25428000     -1.114503    0.75430000    1.46277400
Ge   13.14143000   15.73536000   15.42373000     -1.912506    0.85156900    0.28908300
Ge   14.17472000   18.91160000   19.74588000     -0.702187    0.32860800    0.58668400
Ge   10.06742000   21.38142000    0.71466000      0.085120    0.74200400   -0.46545600
Ge   23.03862000    4.33590000    3.68393000      0.006228    0.40661400    0.04423500
Ge   23.68672000    2.47625000   16.30590000     -0.437610    0.06805700   -0.33555200
Ge   22.29002000    9.32985000    6.92341000     -0.078414   -0.58617500   -0.64831600
Ge   20.32378000    9.73336000   13.99461000      0.302176   -0.79476000   -2.79179100
Ge   23.02007000   16.08118000    5.73186000      0.176901    0.44242000   -0.05870400
Ge   19.43729000   14.05420000   13.09097000      0.199974   -0.28526400   -0.14903200
Ge   20.34517000   20.58969000    5.60883000      0.111124   -0.02955500    0.98633800
Ge   20.93018000   23.19356000   17.78426000     -0.630403   -0.01713400    0.47617200
Ge    6.40130000    4.54622000    5.65045000     -0.093398   -1.01540200    1.87974600
Ge    3.57500000    2.16615000   14.23851000      0.612337   -0.82390400   -3.29193400
Ge    5.29887000   10.73796000    3.41013000      0.074915    0.73918500   -0.23830400
Ge    7.67705000    8.74438000   12.75280000     -1.263032    0.17566400   -0.52593300
Ge    5.37228000   15.13458000    0.29030000      0.720267   -0.51487500    0.54546000
Ge    4.88983000   12.76180000   12.98689000     -0.481456   -0.26549000    1.14853200
Ge    4.56188000   22.75192000    6.12574000      0.315204   -0.78606100   -0.43137700
Ge    6.08126000   21.20423000   13.35484000      0.029681    0.28868800    0.56038500
Ge   15.02805000    5.97138000    2.47538000      0.448998    0.30094700    0.30385700
Ge   13.21083000    0.34068000   13.14335000      0.545173   -0.14040200   -0.41030600
Ge   11.06345000   10.14823000   19.65435000     -0.564320    0.05501500    0.62624700
Ge   14.17255000    9.05151000   12.70145000     -0.787870    0.67680700    0.40765700
Ge   10.72970000   13.51595000    2.51951000     -0.671617    0.31530800    0.19543400
Ge    8.37983000   17.25395000   10.77936000     -0.104551   -1.01475800    0.23678800
Ge   12.44012000   22.69504000    1.38378000      0.805591    0.60652000    0.44461600
Ge   10.38016000   22.35459000   14.02087000      1.054924   -0.20190200   -0.00170800
Ge    0.72289000    2.07897000   18.96652000      0.124827   -0.47890300    0.13434200
Ge   12.61182000    6.23957000   12.99598000      0.545881   -0.41684500    0.03379400
Ge   17.35816000    8.44868000   19.75394000      0.639773   -0.31824400    0.52009700
Ge   12.69283000    6.20615000    8.57058000      0.863828    0.60592400   -0.27212800
Ge   20.99950000   13.34842000    2.60941000     -0.534688   -0.57394000    1.04303700
Ge   16.03234000   17.03420000    7.87976000     -1.382311    1.01198100    0.66551900
Ge   17.00272000   21.32088000    3.10311000      0.315502   -0.02787800   -0.83235900
Ge   18.76948000   21.94548000   13.63041000      0.917578   -1.04286000   -0.13125300
Ge    0.93454000    1.71192000    2.41393000     -0.139594   -0.44808400   -0.28924700
Ge   22.91188000    2.28680000   10.17506000     -2.735872    0.77363400    0.37907500
Ge   22.54949000   10.10558000    2.96097000      0.144899   -0.72737900    0.88790800
Ge   22.87621000    9.04928000   13.24247000      1.047351   -0.35228300   -0.27480600
Ge    2.76244000   13.28782000    3.70593000     -0.587877    0.06403800   -0.58918800
Ge    0.36697000   16.39836000   11.70118000     -0.143374   -0.15981100   -0.54241900
Ge    0.51477000   21.39824000    3.90986000     -0.308855    0.79696900    0.96571800
Ge   20.82192000   17.85554000   12.18968000      0.503107    0.30577800    1.17905000
Se    2.71520000    0.39581000    0.16128000      0.438877   -0.41595400   -0.40906200
Se    1.27076000    1.49847000    9.51427000      1.585100    0.11415400   -0.20384300
Se    0.69604000    7.12454000    1.23143000      0.113512    0.77497500   -0.39373900
Se   23.42856000    9.43061000   10.74427000     -0.308081   -0.25026900    0.19558600
Se   22.10290000   11.81436000    1.12442000      0.135369    0.18110500    0.02327300
Se    1.01678000   13.94679000    8.85266000      0.036374    0.68984500    0.18945400
Se    2.16056000   19.84100000    3.08900000     -0.651355   -1.57971300    0.72103800
Se   23.49817000   18.72856000   12.38162000     -0.870696    0.23330800   -0.57289400
Se    6.91783000    3.23067000    1.70597000     -0.071104   -0.20661900    1.10218800
Se    5.77393000    3.43702000   13.24930000     -0.040113    0.25962800    0.58818100
Se    9.31624000    4.75698000    4.77333000      1.007034    0.89721000    0.15870800
Se    7.74428000    8.75226000    9.80841000      0.793263    1.37719700    0.01231700
Se    8.37290000   10.32857000    0.18431000     -0.564110    0.50376200   -0.36877000
Se    7.30782000   14.74603000   11.21679000     -0.121956    1.11040600    0.01354200
Se    7.38018000   19.82678000    2.27676000     -0.742859   -0.08036500    0.22891600
Se    9.93018000   20.59417000   11.83961000     -0.027222    0.29141600   -0.28384700
Se   12.63898000    0.83824000   19.55696000      0.419404   -0.22682400    0.89723100
Se   12.68107000    2.99398000   11.84229000      0.258222   -0.25236500    1.00834000
Se   11.01636000    8.53561000   17.71647000      0.435645   -0.16743100   -0.15372000
Se   11.00910000    9.78272000    6.66729000     -0.697787   -0.02339000    0.49971800
Se   13.16016000   13.63437000    1.71441000      0.797230    0.15742000    0.05996200
Se   12.95415000    8.79184000    9.24293000     -1.386251    0.21078200    0.55358900
Se   15.02547000   16.73192000    1.27008000     -0.100519   -0.03545400    0.08604100
Se   12.53443000   18.72511000   11.32844000     -0.057061   -0.50942500   -0.10188400
Se   19.46192000    3.48861000    3.96082000      0.298705    0.12412500   -0.51118500
Se   13.99840000    4.05414000   14.02555000     -0.392549    0.04881800   -1.48672800
Se   16.03009000    5.34514000   16.30691000     -0.153608    0.14151800   -1.35013100
Se   20.23539000    4.36214000   13.82505000     -0.797065   -1.38390400    0.44427600
Se   19.85683000    9.48330000    0.34194000     -0.435052   -0.00914400   -0.27075400
Se   16.61260000   19.77500000    7.33492000      0.833560   -0.75960000   -0.13586300
Se   19.77644000   17.19760000    0.64645000      0.225459   -0.00514900   -0.27571400
Se   19.63367000   19.20434000   10.53054000     -0.579971   -0.79020100   -0.78848600
Se    3.11072000    0.76744000    4.89151000     -0.778821   -0.13802500    0.07227200
Se    2.34346000    5.41580000   12.00531000      0.912890   -0.59819600   -0.76608000
Se    5.98637000   11.69880000    0.78546000     -0.416198   -0.33466600    0.58137500
Se    4.83858000   12.55484000   10.63006000     -0.142513    0.26059500   -0.46638900
Se    3.79686000   13.07295000    0.72648000      0.443286    0.13895200    0.37912100
Se    3.49652000   17.06743000   10.93028000     -0.845488   -0.47901000   -0.01157200
Se    5.46845000   21.61429000   19.86362000      0.648576    0.71577000   -0.36977300
Se    4.83316000   19.59355000   11.89260000      0.089918    0.47489900   -0.23452100
Se   11.50943000    6.45735000    2.16987000      0.069126    0.44636600   -0.45267300
Se    8.53949000    3.14470000   10.41032000     -0.777587    0.30038300    0.73906300
Se   10.33298000   12.72458000   19.01990000      0.733741   -0.16356400   -0.29643800
Se   10.67938000   10.78422000   11.28430000      0.742138    0.82700800    0.61136900
Se   10.92815000   16.20862000    2.84815000      0.930531   -0.91399600   -0.49327400
Se   12.21153000   15.08549000   12.89508000     -0.154165    0.31523100    0.77631400
Se   11.48395000   23.66361000   17.76622000     -0.837199    0.66331700   -0.35734000
Se   10.05809000    0.66887000   11.17387000     -0.432717   -0.88451200    0.92382200
Se   11.87463000    4.18306000   17.27424000     -0.123729   -0.19886600    0.18012900
Se   17.84212000    8.05842000    9.34918000     -0.578365    0.85495700    0.02159800
Se   16.56381000    9.15882000    2.44404000      0.138931    0.78228300   -0.14744200
Se   18.04048000   13.51467000   10.49849000     -0.551000    0.59049200    0.59513100
Se   18.67791000   14.16817000    2.16599000     -0.030306    1.15849500   -0.03246300
Se   13.75679000   15.57011000    8.15188000      1.285255   -0.68247000   -0.18360400
Se   18.31244000   22.33680000    0.81054000     -0.911083   -0.03777800    0.82827900
Se   17.15758000    0.63351000   11.12444000      0.204120   -0.20796200    0.82880900
Se   23.18471000    3.20937000    1.02607000      0.670019    0.04166400   -0.07750900
Se   22.00370000    4.67245000   10.45372000      0.897215   -0.41369800   -0.33030500
Se   21.24202000    5.98189000    2.15999000      0.293275   -0.42022300    0.03833500
Se   20.84709000   11.60394000   12.08057000     -0.028494    0.13718100    1.02654800
Se   22.66796000   14.64725000    3.82622000      0.220335   -0.72678700   -1.07954000
Se   21.20696000   15.54058000   11.29254000      0.585865    0.10369400   -0.25175400
Se   23.06473000   22.18618000    1.95707000     -0.008378    0.79354600    1.42697200
Se   21.96995000    0.60855000   15.68991000     -0.004537   -0.81727600   -0.19528900
Se    3.69700000    4.75687000    9.79891000      0.185961   -0.07949900    1.00567400
Se    4.93273000    6.40704000   18.08119000     -0.495615    0.35060700    0.79989000
Se    3.78908000   11.84289000    8.13852000      0.562687    0.58079700   -1.06431600
Se    3.85175000    7.49604000   15.47263000      0.160003   -0.15215300   -0.62802800
Se    5.95819000   20.00216000    6.38804000      0.415957    0.40664500   -0.45295200
Se   22.24182000   15.45001000   19.30163000      0.164826   -0.18101400    0.24038500
Se    0.92363000   21.90920000   11.06322000     -0.433738   -0.97426500    0.31796100
Se    2.69671000   20.23229000   17.68779000     -0.049502    0.52895400    0.31856000
Se    7.68336000    3.82151000    7.84008000     -0.738547    0.48013400   -0.47280500
Se    5.67610000    4.66123000    0.33238000     -0.424416    0.32097600   -0.82070400
Se    7.25370000   11.09665000    6.68410000     -0.348140   -0.79765300   -0.08478600
Se    3.92456000    9.71628000    0.08255000     -0.052953    0.24479500   -0.81282500
Se    6.47609000   18.15043000    9.51719000      0.113190   -0.20088200   -1.13702200
Se    6.62521000   15.91547000   18.11362000     -0.699549    0.36976800   -0.16171300
Se   10.01093000   19.93265000    7.74266000     -0.192040   -0.08224600    0.41120800
Se    9.28647000    2.45062000    0.15566000     -0.583501    0.16957500   -0.47557900
Se   14.33053000    2.60280000    9.48761000     -0.306037    0.76987200   -0.67114200
Se    8.22732000    4.79530000   18.38452000      0.845001   -0.27104800    1.26274500
Se   10.34770000    5.89245000    8.82516000      0.055721   -0.10453500   -0.80037300
Se   17.28042000   12.74027000   16.30000000      0.955219    1.47031500   -0.86616300
Se   13.56349000   18.79865000    7.35410000     -0.765600   -0.29412300    1.25892800
Se   14.73682000   16.12823000   18.40600000      0.274251    0.29616700   -0.41680000
Se   15.84887000   23.52626000    7.85567000     -0.288573    0.03966700   -0.90283400
Se   18.74871000    2.13890000   16.74761000     -0.102805   -0.34537100    0.65177300
Se   17.03745000    3.53610000   12.05503000      0.239321    0.35606200    0.53017700
Se   22.10535000    3.77458000   18.12927000     -0.299110    0.22678600   -0.38509500
Se   18.34783000    9.25511000   12.53712000      0.092231   -0.04191400    0.52025400
Se   20.33364000   10.71476000   15.98087000      0.106021    1.07200500    1.61698500
Se   15.97835000   18.03418000   10.40246000     -0.455227    0.03649400   -0.30834700
Se   19.62238000   13.31709000   18.76180000     -0.761358    0.26429000    0.50428800
Se   18.77935000   23.13030000    7.86019000      0.117859    0.07577800   -0.27894300
Se   18.56226000   19.17542000    0.95442000     -0.010437    0.69576000    0.56840200
Se    5.01665000   22.98168000    8.77798000      0.007678    0.23100700    0.46844700
Se    3.83535000    3.00623000   19.49059000      0.899066    0.05519600    0.32880700
Se    6.85943000    6.72290000   10.34248000     -0.283011   -1.50057800    0.15608000
Se    4.46065000    7.47686000    0.53346000      0.477813   -0.81629100    0.07769300
Se    5.30273000   16.24780000    6.76249000     -0.511866    0.08272200   -0.06866500
Se    6.34805000   11.99862000   17.17709000     -0.034742    0.48028400    0.31824300
Se    2.42814000   19.16751000    8.53611000      0.097536   -0.21501200   -0.50517600
Se   23.10775000   19.05699000    0.58353000      0.072106   -0.38025100   -0.71259400
Se    8.93508000    0.26419000    7.28115000      0.501242   -1.18269300    0.21353100
Se   12.41465000    4.39853000    1.76561000      0.048698   -0.83213800    0.22431100
Se   11.59621000    2.21036000    9.29795000     -0.293962   -0.31590500   -0.20013500
Se    8.65980000    6.84180000    0.86463000     -0.703383   -0.74733800   -0.72678600
Se   11.29208000   13.56033000    8.15599000     -1.046023    1.07308700    0.91357000
Se    8.95475000   14.18539000    0.76241000     -0.265005    0.02577800   -0.09591800
Se   13.77780000   22.39780000   11.09365000     -0.534320    0.72213500   -0.21588000
Se   13.89933000   13.22991000   16.85421000     -0.402207    0.02495900    0.05363300
Se   16.98728000    2.97157000    8.22504000      0.517846    0.01057800   -0.00529000
Se   17.62217000    5.25920000    1.51543000     -0.080939   -0.22443500    0.21593500
Se   15.03659000    8.04853000    8.65600000      1.772639   -1.31208500   -0.40660100
Se   15.94280000    9.17824000   17.69315000     -0.339442   -0.03213200    0.10665300
Se   14.88296000   13.41767000    8.55545000     -0.521737    0.67714700   -0.28630700
Se   16.30895000   12.84300000   19.36126000     -0.650217    0.03260700   -0.07185600
Se   14.57825000   19.21129000    4.01184000     -0.026931    0.53587200   -0.11885500
Se   19.63016000   21.11266000   18.10264000      0.536780   -0.23572500   -0.41053800
Se   21.48897000    1.76921000    7.78213000      0.563827    0.74946400    0.73207200
Se    0.59804000   23.62523000   16.09605000     -0.876088    0.43720200    0.02011700
Se   20.78587000    7.39677000    9.42046000      0.567170   -0.47229400   -0.95287800
Se   23.64250000    7.32535000   17.05884000     -0.678940   -0.14468100   -0.46195800
Se    0.27833000   11.41547000    7.84250000     -0.550857   -0.98177900    0.14749900
Se   21.94177000    7.93519000   18.62062000      0.010919    0.81101100    0.51038300
Se   21.55787000   17.29972000    7.59453000     -0.687699    1.22717400    0.07880700
Se   19.44005000   17.13046000   18.10421000      0.063314   -0.14927800   -0.00074600
Se    1.07195000   22.92133000    9.00663000     -0.169558    0.00489200   -0.52040900
Se    3.23410000   23.40606000   13.04522000      0.350551    0.55612300    0.46391500
Se    2.24817000    8.31101000    8.01328000      0.803961   -1.47955400    0.65693300
Se    2.25856000    8.75344000   18.24961000      0.071259    0.97318900   -0.59620300
Se    0.43110000   16.23317000    8.62115000      0.364933   -0.09255600   -0.12873100
Se    1.08641000   12.65064000   18.18042000      0.054298   -1.16770000   -0.54203200
Se    2.64996000   19.38875000    5.61528000      0.126931    0.49755700    0.62339300
Se   23.09222000   19.08092000   16.44986000      0.096499    0.11431300    0.54966300
Se    5.82913000   23.10699000    3.77874000      0.145379    0.16045100    0.46839800
Se    6.29936000    1.19852000   17.27366000      0.174116   -0.19298500    0.20655600
Se   10.84707000    6.92870000    5.29375000     -0.167344   -0.52559100    0.08948000
Se    6.23604000    7.84024000   15.71346000      0.675593    0.04126000   -0.49560900
Se    7.25011000   14.61071000    8.01299000      0.241150   -0.30203100   -0.45045200
Se    8.00632000   19.46480000   12.62901000      0.133258   -0.66617800    0.78212500
Se    8.18594000   16.15765000    3.57172000     -1.065972    1.15852700    0.45718200
Se    9.17616000   16.77256000   15.09046000      0.093474    0.45357100    0.60202800
Se   15.03512000   21.68847000    5.49218000     -0.406204   -1.58768700    1.52389200
Se   14.07091000   22.56140000   15.88888000      0.794355    1.58590400   -0.54011000
Se   13.12875000    8.85136000    4.53239000      0.773845   -0.33865700    0.05930100
Se    9.77142000    8.21527000   13.69497000      0.965228   -0.66418300   -0.25128900
Se   14.13700000   11.98523000    4.41648000      0.844918    0.99190600    0.09098600
Se   15.25134000   15.39653000   14.55542000      1.419319   -0.35909400   -0.56079200
Se   12.31965000   18.55146000    4.28696000     -0.867507    1.54741400   -0.21915400
Se   15.87301000   19.88349000   18.37792000      0.538986   -0.93494700   -1.05019800
Se   17.81100000    1.86368000    4.40497000      0.212011   -0.32585600    0.12927500
Se   18.73045000    0.61969000   18.85139000      0.870349    0.84138900   -1.33591500
Se   19.84116000    8.17245000    5.65501000      0.283103   -0.77504300    1.14180000
Se   19.66409000    6.55110000   16.25573000      0.536410   -0.25606700    0.11485600
Se   19.82714000   11.94576000    4.55093000     -0.468273    0.54339000   -0.77858000
Se   17.01272000   13.22214000   12.70451000      0.516150    0.14497200   -0.39479800
Se   19.09558000   18.38214000    4.63338000     -0.356259    0.38256000   -0.30658200
Se   20.86429000   20.39910000   14.20605000     -0.518309    0.64616800   -0.06446300
Se    5.56608000    6.80152000    6.19685000     -0.398612    0.89329900    0.15215700
Se    2.69157000    2.42090000   16.26050000     -0.175850    0.56694100    2.13064900
Se    3.03392000    9.54777000    3.56613000     -0.269496   -0.02392200   -0.47411200
Se    4.68639000   10.36265000   14.35016000      0.586335    1.61438900    0.75973700
Se    5.02928000   14.40840000    4.90443000     -0.305604    0.64444900   -0.40891200
Se    2.10093000   16.24081000   18.24997000     -0.327911    0.64337000   -0.06758700
Se    1.08995000   23.06100000    5.74653000      0.520889   -0.16251900   -1.06937200
Se    3.24588000   19.86142000   13.64678000     -0.442382   -0.94511600   -0.65031100
Se   12.57022000    0.63564000    6.36608000     -0.105018    0.91287800   -0.02060200
Se    8.09158000    5.01672000   16.19798000     -0.157576   -0.40911700   -1.61009500
Se   12.15137000   12.05162000    6.80155000      0.411222   -1.45657900   -0.77795200
Se   11.40994000   13.14708000   16.83117000     -0.310915   -0.03549500   -0.50183800
Se   10.16182000   16.59335000    8.92894000     -0.892497   -1.36513300    0.40191100
Se   11.42962000   19.89699000   19.06501000     -0.241963   -0.46190200   -0.23347800
Se   10.09726000   22.55014000    3.73643000     -0.555228   -0.31559600    0.35775200
Se    8.02025000   20.76896000   19.20283000      0.276438   -0.45233800   -0.90005400
Se   14.96237000    5.19582000    4.94273000     -0.451741   -0.29775600    0.56407400
Se   14.37917000    6.06752000   18.60830000     -0.168654   -0.37117000    0.43443000
Se   16.65576000   10.49039000    7.18263000     -0.463470   -0.19491300   -0.75846500
Se   17.50196000    7.46036000   13.84361000      0.394037   -0.65729900   -0.56528900
Se   16.98099000   14.28433000    5.60230000      0.604918    0.42020900   -0.88881200
Se   13.03177000   18.47614000   15.87733000     -0.187198   -0.59278700   -0.32721800
Se   15.39317000   23.25916000    4.00402000      0.275852    2.21321100   -1.38914600
Se   17.57523000    4.12339000   14.42960000      0.235880   -0.32534700   -0.61343500
Se   22.19777000    4.93383000    6.68524000      0.774264   -0.67147300   -0.55891600
Se   22.98596000    4.89838000   14.32687000      0.627696   -0.23599200   -1.29478800
Se   17.11602000   10.56242000    9.79955000      0.837385   -0.59345800    0.26276900
Se   21.73052000   14.02944000   15.33646000      0.117100    0.09728100    0.69406000
Se   18.26080000   16.18510000    8.40752000      0.712118   -1.41312000    0.37922300
Se   22.37009000   16.37261000   15.91235000      0.550660   -0.39157700   -0.72774700
Se   21.22671000   23.24877000    8.37234000     -0.116887   -0.93636600   -0.26611900
Se   22.91740000   22.98070000   19.24580000     -0.964671    1.39920500   -1.06353400
Se    4.44542000    3.51298000    7.02891000     -0.050167   -0.40277500    0.55171500
Se    5.10357000    0.12567000   15.15887000      0.298446    0.42212100   -0.49151800
Se    4.23388000    4.71343000    3.53927000     -0.671983   -1.05277900   -1.30138200
Se    4.29732000    8.28984000   11.28227000     -0.297009    0.28575600   -0.88681800
Se    1.23795000   11.14858000    2.66770000      0.794576   -0.17896600    0.24024600
Se    4.71349000   14.56642000   14.70452000     -0.416623   -1.01076000    0.09405600
Se    4.51108000   16.76663000    1.77494000     -0.113542    1.13012700    0.57072300
Se    3.48523000   16.84402000   13.26312000      0.471070   -0.01779700    0.26139200
Se    9.26117000    1.11586000    2.32818000      0.150487   -1.76824000    0.26212900
Se   10.71902000    1.16814000   14.41101000      0.166768    0.95531200    0.22563900
Se   10.19351000    9.52267000    2.99262000     -0.071925    0.29030200    0.60239700
Se    8.74087000    8.97576000   16.86618000     -0.460214   -0.05049400   -0.06539900
Se    9.47733000   12.82513000    4.73121000     -0.111760    0.77524400   -0.16359200
Se   12.68593000   11.06729000   12.92761000     -0.457173   -0.77800000   -0.90599300
Se    9.69842000   19.34004000    2.03838000      0.031122   -0.90551500    0.69351300
Se    8.20207000   22.53341000   15.01039000     -0.028682   -0.41594000    0.45887000
Se   18.16940000    4.99457000    8.56364000      0.478863    0.19078500   -0.13818800
Se   14.76769000    1.19691000   16.57377000     -0.544593   -0.38095700   -0.26984700
Se   16.64725000    7.40408000    4.08710000     -0.159604   -0.80351500   -0.49545600
Se   13.10169000    7.36733000   15.19433000     -0.859674    0.46346500   -0.53507300
Se   16.94892000   12.58427000    1.76310000      0.620038   -1.81661000   -0.21614400
Se   18.17201000   18.31382000   14.72550000      0.472416   -0.99503200    0.36336600
Se   15.23330000   16.96711000    3.84166000      0.789243   -0.84766900   -0.52310000
Se   17.02422000   20.29655000   14.22234000     -0.630159    0.39706800   -0.41319400
Se   23.01972000    1.95605000    4.19761000     -0.523445   -0.18128700    0.93464100
Se   21.98906000    0.91238000   12.10215000      0.405017    0.26352600   -0.55902300
Se   23.66548000    8.28874000    5.02632000      0.270466    0.18152100    0.58841100
Se   21.59481000    6.93249000   13.49192000      0.474503    0.59861300   -0.09922700
Se    1.52604000   16.19259000    4.50090000      0.256529   -0.04369300    0.57407600
Se    1.47526000   12.07414000   14.94252000     -0.711975   -0.30336400    0.07941000
Se   22.89175000   20.81854000    5.85557000     -0.241511   -0.44357500    0.00588000
Se   20.51545000   21.31548000   10.59276000      0.743551    0.50566300    0.69520700
Se    2.09806000    4.11757000    6.71254000      0.949427    0.15948000   -1.13038100
Se    1.66878000    3.24381000   12.57683000      0.408825    0.16440100    0.43521900
Se   21.91108000   11.30806000    5.29260000      0.960618    0.07385800   -0.55535200
Se    1.49869000    8.54031000   14.42739000     -0.030285    0.50489300   -0.95631200
Se    1.83140000   14.86390000    1.75215000     -0.155819   -0.10557600   -0.11694600
Se    1.29563000   16.39642000   14.22394000     -0.618689    0.73257300   -0.24118200
Se    3.78193000   21.01518000    1.99267000      0.757657    0.32469500   -0.55787200
Se    5.17645000   17.47340000   16.83937000      0.820470    0.11770600    0.42832000
Se   11.09227000    2.95479000    5.50388000      0.153322   -0.35261300   -0.25291700
Se    8.43617000    2.28604000   13.36447000     -0.311952    0.11866800   -0.73679200
Se    6.23578000    8.41550000    3.41623000      0.245797    0.28735600   -0.09634400
Se    8.46901000   11.11906000   13.22756000      0.240764   -0.36049100    0.66689900
Se    7.03483000   14.51336000    2.44020000     -0.095936   -1.05330800   -1.17646700
Se    9.77789000   15.25679000   13.40857000      0.286234   -0.48141200   -0.61291600
Se    7.26819000   22.36826000    9.32915000     -0.180697   -0.36712100    0.13311700
Se    5.96552000   19.92300000   16.00510000      0.682799   -0.04633900   -0.38958800
Se   13.49110000    0.79585000    3.09888000     -0.004290   -0.62676700   -0.78290800
Se   10.03615000    5.74924000   13.17739000     -0.075221    0.13443500    0.85605100
Se   13.22463000    9.61604000    1.09251000      0.100194    0.21816700   -0.51499900
Se   15.80504000   10.36786000   14.28222000     -0.517636    0.00386900   -0.82666000
Se   10.07029000   16.78450000    5.78026000      0.004435   -0.42278400    0.33194700
Se   14.10434000   16.92046000   11.86800000     -0.099229    1.22630500   -1.04362500
Se   14.77525000   21.20999000    1.14593000     -0.103840    0.36709300   -0.04814500
Se   15.58537000   22.90932000   13.92700000     -0.721187    0.01992000    0.60316600
Se   18.09954000    5.95144000   19.13516000      0.633553    0.40392000    0.47843300
Se   14.82915000    5.59478000    9.68387000     -0.299663    0.93872500   -0.29920600
Se   20.03099000    8.37641000    2.31617000      0.123070   -0.48786000    0.84150500
Se    2.03377000   12.12169000   12.70013000      0.537482    0.47935800   -0.52899000
Se   20.83249000   17.14644000    3.75482000      0.437755   -0.53201900    0.10124700
Se   17.75870000   16.16894000   13.45050000      0.246625    0.31307400    0.30557800
Se   19.71600000   22.14293000    3.88251000     -0.396236   -0.13009000   -0.64421500
Se   18.78764000    0.41371000   14.81637000      0.046483    0.72865000    0.18504700
