384
23.69824000 23.69824000 19.89960000
Ge    5.19470000    6.67264000   13.14431000     -0.352852   -0.00759500    0.05999200
Ge    6.69175000    5.29708000    3.17919000      0.215569   -0.00632700    0.15410300
Ge    1.75461000   12.87882000    6.69718000      1.056330    0.41932000   -0.39995500
Ge    9.08885000   14.39585000   15.77979000     -0.062265   -0.67697300    0.13686400
Ge    5.17589000   15.31154000   10.01744000      0.317365   -0.57658800    0.02622500
Ge    9.54903000   18.18647000   19.48085000      0.195839    1.32603800   -0.01820600
Ge    8.17762000   22.38980000   12.06144000     -1.668267    1.93048700   -0.62697800
Ge    5.47318000    0.89101000    0.22986000     -0.651802    0.32158000   -0.49111500
Ge    9.13839000    5.35550000   10.86821000     -0.184350    1.59256500   -0.58064500
Ge   10.74069000    6.24727000   19.26938000      0.386795    0.05962600   -0.00394900
Ge   10.38858000    8.44147000   10.24226000     -0.209649   -0.42832500    0.51449500
Ge   13.24909000   12.34220000   19.44545000      0.050061   -0.28331200    0.22712300
Ge   11.60900000   18.61562000    9.04260000      0.075774   -0.59499700   -0.95872400
Ge   12.50783000   15.85989000    0.88743000      0.456727    0.65507400   -1.86789400
Ge   10.88566000   23.24800000    9.14758000      0.403605    0.04855200   -0.54569500
Ge   16.54077000   22.04417000   18.85035000     -0.767433    2.37044400    0.12301600
Ge   19.10467000    5.29031000   11.82230000     -0.117187    0.34845000   -0.28399200
Ge   19.80604000    8.56948000   17.58929000      0.124231    0.13125900   -0.15786800
Ge   19.60630000   11.81543000    9.94145000      0.189295   -0.30283700   -0.22399100
Ge   18.29364000   11.46028000   18.22170000     -0.480357   -0.45819800   -0.25131300
Ge   14.98944000   20.15922000    9.11482000     -0.632053   -0.17808100    0.68866700
Ge   17.87049000   15.24593000   19.59050000      0.414058    0.41681500   -0.26531000
Ge   19.68610000    1.80895000   12.64781000      0.563032   -0.04403600    0.06362600
Ge   20.27371000    3.76530000    1.12387000     -0.422294    0.15709700    0.97794200
Ge   23.20786000    6.26574000    8.55711000     -0.557538   -0.04100300    0.90251500
Ge    2.21950000    3.08084000    4.30793000      0.017469    0.04213100   -0.60101800
Ge    1.96084000   10.36385000    9.68576000     -0.596342   -0.64497500   -0.11971800
Ge    0.81309000    9.56652000    0.24033000     -0.213492   -1.01738600    0.46316300
Ge   21.03621000   15.13837000    8.57667000     -0.584839   -1.79341900    1.36904500
Ge    0.81013000   14.83614000   19.42734000     -0.549660   -2.33432300    1.01587300
Ge   18.79220000    1.46536000    9.15783000      0.502323    0.08881700    0.63103900
Ge    0.88670000   21.13457000    0.21202000      0.386270   -0.87155700   -0.72158300
Ge    4.92420000    8.49706000    8.25286000     -0.438475   -0.10085700   -0.10954100
Ge    1.80026000    6.28326000   18.92060000     -0.512385   -0.27772100    0.65224900
Ge    1.73736000    9.73302000    5.98467000      0.623820    0.46981600    0.99248500
Ge    3.78262000   12.48721000   16.38558000      0.445562   -0.13855300   -0.31442900
Ge    6.22116000   18.02451000    3.70142000     -0.410224   -0.74996300   -0.39184900
Ge   23.33635000   17.42616000   18.23495000      0.881447    1.02610900    0.69426800
Ge    4.71665000   20.22347000    9.12735000     -0.147021   -0.02718500   -0.44176700
Ge    3.69574000   22.76568000   18.16328000      0.228356   -0.93457000   -0.86722200
Ge    9.82305000    2.40698000    7.48430000     -0.108265    0.00686000    0.04560400
Ge    6.67389000    8.20045000   18.56952000      0.287367    0.11687000    0.19382400
Ge    5.82356000   12.99347000    6.78432000     -0.254793   -0.20251500   -0.07097300
Ge    8.11707000    8.81153000    1.93247000      0.413068    0.99474300    1.00059600
Ge    7.79719000   18.35264000    6.95824000     -0.094801    0.46289300    1.25034900
Ge    4.47346000   19.37666000   19.30443000     -0.670414   -0.84677100   -0.13704500
Ge   11.10079000   22.38416000    6.00497000     -0.262306   -0.04042500    1.21464000
Ge    9.97240000    2.56120000   17.83870000      1.790392   -0.87166300   -1.35035000
Ge   13.49654000    6.91195000    6.08290000     -0.296011   -0.43729000   -0.22083500
Ge   13.50701000    8.25331000   18.73396000      0.126317    1.05759100    0.69593800
Ge   15.64301000   12.51678000    6.30516000     -1.072058    0.20327800    1.29890400
Ge   16.74818000   15.61806000   16.35259000      1.054508    0.09743100    1.41512500
Ge   12.43255000   16.14033000    4.75250000      1.010374    0.63026700    1.42344700
Ge   15.22531000   17.91417000   16.59270000      0.815694    0.08905800    0.48731600
Ge   15.12336000    0.41771000    9.98648000     -0.513531   -1.17490200    0.00143500
Ge   16.35578000    4.28952000   18.45221000      0.534441    0.77703900    0.20795100
Ge   20.01420000    6.21437000    7.01669000      0.923010   -1.08992600    1.15048300
Ge   22.19174000    5.40843000   16.36924000     -0.921338    0.17737700    0.51964800
Ge   19.76851000    9.35534000    8.00877000     -0.552333    0.34043100    0.08231500
Ge   21.94239000   13.26038000   17.85390000      0.225448    0.14655400   -0.68150800
Ge   19.05953000   17.99029000    7.26183000     -0.932319    1.50674800   -0.39412600
Ge   20.61756000   19.38218000   16.48113000     -0.295152    0.07306600    0.73148600
Ge   19.76488000    0.58077000    5.37495000     -0.028641    0.39212700    0.32252900
Ge   20.45266000   21.02502000    1.09135000     -0.333991   -0.59695300   -0.49489100
Ge    5.61984000    2.89086000   10.91700000     -0.256502   -0.18253600   -1.49674400
Ge    5.02806000    3.47113000   17.01313000      0.042486   -0.44347800    0.85024600
Ge    3.41599000    6.41204000    4.96100000     -0.627479    0.40369100    0.51744200
Ge    2.98845000    9.69050000   12.68769000     -0.328615    0.17529500    0.95773700
Ge    2.70721000   16.97129000    6.85640000      0.124465    0.63914700   -0.04968600
Ge    1.13832000   14.53538000   15.85508000     -0.377394   -0.68391000    0.16784500
Ge   22.83405000   19.94993000   10.22472000      0.203496    0.75729400    0.52820000
Ge    3.46742000   22.00117000   15.02077000     -0.546266    0.00866100    1.29921500
Ge    9.96609000    3.26208000    2.67518000      0.967933    1.63541700    0.39612400
Ge    8.53294000    2.15668000   15.81181000     -0.838754    0.47234300    0.31275800
Ge    9.11782000   10.33140000    5.15218000      0.637092    0.18958300    0.79554400
Ge    7.20930000   10.64266000   15.48444000      0.066620    0.24658900    0.25753200
Ge    9.60847000   14.46586000    6.48261000      0.133355    0.44278200    1.66408700
Ge   15.48130000   11.23480000   16.49885000      0.066426    0.51883700   -1.18350500
Ge    7.45939000   21.30825000    4.15796000      0.388024    0.48372700    1.51690600
Ge    8.66478000   20.15420000   15.56646000     -1.193556   -0.14220300   -0.07069200
Ge   14.81136000    1.90297000    6.82998000      0.203116    0.58017600   -0.54294800
Ge   12.93614000    2.66243000   15.60715000     -0.176283   -1.15351800   -0.01395100
Ge   15.66173000    9.72904000    4.66473000     -1.121042   -0.16500900    1.35670300
Ge   15.50005000    7.76595000   15.33809000      0.330861    0.26527900   -0.11906900
Ge   15.48086000   14.14292000    3.35021000      0.219102    0.08370600    0.23475800
Ge   13.08511000   15.95241000   15.41456000     -0.925973   -0.10932700   -0.08608400
Ge   14.29114000   18.90803000   19.69530000     -0.717542    0.70426200    0.13255200
Ge   10.05544000   21.36143000    0.90041000      0.491147    1.04132600   -1.38896800
Ge   22.95426000    4.39454000    3.63713000      0.511263    0.50609200    0.27527600
Ge    0.18716000    2.41459000   16.39222000     -0.792610    0.23052200   -0.93469700
Ge   22.04215000    9.26622000    6.70060000      0.263576    0.08165000    0.06201900
Ge   20.49550000    9.62321000   14.02357000      0.209756    0.35667800   -0.61838500
Ge   22.96102000   16.06631000    5.93373000      0.376014    0.44103500   -0.01700500
Ge   19.47531000   14.07092000   12.86689000      0.249577   -0.69228200    0.15639600
Ge   20.37139000   20.55984000    5.51810000     -0.233913    0.20449800    0.95710200
Ge   20.83167000   23.16961000   17.81609000      0.270575    0.13818700   -0.06997100
Ge    6.39119000    4.45758000    5.67229000     -0.322962   -0.33893300    0.82545600
Ge    3.43169000    2.28814000   13.97375000      0.152426   -0.36331900    0.63463500
Ge    5.32579000   10.67593000    3.28703000      0.024509    0.24714800    0.17100000
Ge    7.58857000    8.77787000   12.61683000     -0.844452    0.56426000   -0.34838700
Ge    5.43529000   15.15616000    0.32055000      0.357821   -0.39099100    0.77939200
Ge    5.06018000   12.71861000   13.10496000     -0.965936   -0.31441700    0.91937400
Ge    4.56410000   22.69906000    6.07177000      0.514179   -0.62567600   -0.61173200
Ge    6.01927000   21.35592000   13.45120000      0.318541   -0.35982900    0.43886900
Ge   15.07031000    5.90253000    2.44859000      0.302065    0.36093600    0.73660400
Ge   13.29990000    0.43072000   13.05382000     -0.026701   -0.40840500   -0.35190800
Ge   11.09634000   10.03308000   19.73076000     -0.278889    0.81210700    1.16523600
Ge   14.08951000    9.14860000   12.72307000      0.149507   -0.54437700    0.31673100
Ge   10.66268000   13.43223000    2.59202000     -0.194156    0.44199600   -0.64465900
Ge    8.31611000   17.16169000   10.82681000      0.585126   -0.95492000    0.00911200
Ge   12.51598000   22.76356000    1.60458000     -0.230749   -1.43450100   -1.76329600
Ge   10.54367000   22.28929000   14.01416000      0.707872    0.47711700    0.65123700
Ge    0.87749000    2.07957000   18.89633000      0.077901   -0.39841400    0.77878000
Ge   12.66747000    6.10338000   12.99040000     -0.047416   -0.16013600   -0.43334000
Ge   17.17892000    8.30885000   19.76562000      1.181242   -0.37152200    0.44240800
Ge   12.82367000    6.25506000    8.67547000     -1.554681    0.57001600   -1.15524900
Ge   20.93800000   13.29793000    2.76872000      0.778765   -0.89773000    0.18435900
Ge   15.79923000   17.16805000    7.94731000      0.085381    0.98527100    0.75528800
Ge   17.04630000   21.42936000    3.08091000      0.199958   -0.26724800   -1.00621500
Ge   18.87933000   21.87631000   13.76346000     -0.085586   -0.19335600   -0.77433000
Ge    0.85827000    1.70998000    2.46031000      0.165267   -0.64668700   -0.13550600
Ge   22.70094000    2.24573000   10.13524000     -0.815134    0.09227200   -0.21526900
Ge   22.62108000    9.98577000    3.03337000     -0.175068   -0.25583700    0.13462200
Ge   23.02527000    9.10641000   13.11452000      0.691508   -0.56853700   -0.21712900
Ge    2.72377000   13.36148000    3.51664000      0.171337   -0.69794900    0.23859700
Ge    0.44053000   16.36953000   11.60372000     -0.522494    0.73111700   -0.19079600
Ge    0.41965000   21.53595000    3.97816000      0.940651   -0.78470600    1.39192000
Ge   20.69992000   17.73172000   12.23848000      0.529255    0.72799900    0.16138100
Se    2.86040000    0.24192000    0.23141000     -0.282139   -0.06122800    0.29659000
Se    1.28372000    1.62508000    9.47178000      0.069804   -0.50456400   -0.03322000
Se    0.69203000    7.02258000    1.19535000      0.361399    0.90127000   -0.51627900
Se   23.35973000    9.58120000   10.59567000      0.010729   -0.29731600    0.61842000
Se   22.21170000   11.69016000    1.14701000     -0.407002    0.77699700    0.52328400
Se    0.99141000   13.91381000    8.80207000     -0.307913    0.66482200    0.49303900
Se    2.13892000   19.71673000    3.15191000     -0.584895   -0.01283900    0.85541100
Se   23.49835000   18.84255000   12.45059000     -0.728867   -0.59895500   -0.94287500
Se    6.88826000    3.18916000    1.92744000     -0.114407   -0.24040000   -0.08846100
Se    5.72608000    3.44404000   13.18740000     -0.304154    0.51437000    1.35567500
Se    9.29828000    4.76153000    4.86979000      0.744794    0.56229900   -0.09787900
Se    7.80421000    8.78028000    9.79033000     -0.184332    0.04678100    0.29374900
Se    8.41919000   10.37858000    0.22392000     -0.448896    0.55087300   -0.57913100
Se    7.36566000   14.69440000   11.17931000     -0.160430    1.06179500    0.28384800
Se    7.42945000   19.84448000    2.16572000     -2.055058    0.10453300   -0.27749200
Se    9.84581000   20.81348000   12.01270000      0.762893   -1.79350100   -0.57110600
Se   12.60775000    0.81451000   19.66473000     -0.419703   -0.68263400   -0.43450100
Se   12.64371000    2.82638000   11.85690000      0.472258    0.08587500    0.71613700
Se   10.98713000    8.59654000   17.78787000      0.099532   -0.68946800   -0.75370700
Se   11.07970000    9.81921000    6.66933000     -0.392016    0.46526100    0.32776400
Se   13.18553000   13.71107000    1.73898000      0.485243   -1.11113400   -0.40831100
Se   12.71201000    8.76743000    9.25923000      0.083193   -0.22841200    0.29304600
Se   14.95871000   16.75094000    1.22221000      0.396484    0.13575500    0.37171800
Se   12.55637000   18.76350000   11.32075000     -0.492215    0.33923700    0.35929000
Se   19.74736000    3.38871000    3.99562000     -0.325787   -0.18086700   -0.72811000
Se   14.00826000    4.07041000   13.91991000     -0.431819   -0.55670700   -0.85222900
Se   16.07748000    5.48401000   16.29685000      0.179786   -0.69734600   -0.65354700
Se   20.26722000    4.28673000   13.79223000     -0.799993   -1.27323300    0.36533100
Se   19.86691000    9.65591000    0.41053000     -0.731179   -0.91478300    0.84897300
Se   16.53880000   19.78197000    7.30654000      1.348632   -0.71560400   -0.57076100
Se   19.76271000   17.34411000    0.85341000      0.117680   -0.44714800   -0.96673600
Se   19.70712000   19.11053000   10.25228000      0.120319    0.39245200    0.29256800
Se    3.13858000    0.69421000    4.87650000     -0.724720    0.02956300   -0.12761500
Se    2.52651000    5.35098000   11.80801000      0.051171   -0.32077900    0.83259000
Se    5.89858000   11.76534000    0.84061000      0.011838   -0.36991600    0.25736700
Se    4.82510000   12.54748000   10.71018000      0.023665    0.50669700   -0.62722700
Se    3.80527000   13.02402000    0.59659000      0.344457    0.29130900    0.53604100
Se    3.41790000   17.14886000   10.95318000     -0.729020   -0.52059600   -0.49145000
Se    5.41838000   21.57041000   19.84638000      1.026540    1.38972100   -0.58886900
Se    4.90939000   19.55854000   11.90487000      0.131604    0.85639300   -0.05888000
Se   11.35502000    6.48649000    2.17808000      0.418145   -0.55522600   -0.39209900
Se    8.35173000    3.23212000   10.52530000     -0.780673   -1.29092900    0.39453800
Se   10.23160000   12.71870000   19.09068000      0.834315   -0.17771700   -1.06314900
Se   10.76486000   10.80255000   11.55358000     -0.382339    0.65878500   -0.54847600
Se   11.11484000   16.13405000    2.80507000     -1.167845   -0.47852100   -0.44394900
Se   12.24538000   15.21982000   12.87007000     -0.217059    0.19335000    0.63108000
Se   11.36388000   23.67797000   17.67901000     -0.089058    1.15184100    1.09418900
Se    9.94182000    0.43941000   11.20090000     -0.426243   -0.47596800    1.16681000
Se   11.85681000    4.05070000   17.17749000     -0.232529    0.37220000    0.39169800
Se   17.72138000    8.08247000    9.28537000      0.160547    0.43031700   -0.26378300
Se   16.46308000    9.31090000    2.51818000      0.771642    0.43078700   -1.25263500
Se   18.06908000   13.68203000   10.57175000     -0.026545    0.53015000   -0.71457800
Se   18.78556000   14.20079000    2.12712000     -0.543121    1.42497600   -0.23412100
Se   13.86921000   15.62657000    8.13797000     -0.180711    0.26986300   -0.41410400
Se   18.17027000   22.27468000    0.68170000      0.231571    0.38806600    2.36239100
Se   17.07778000    0.66386000   11.16227000      0.844577    0.02537700    0.37890300
Se   23.24719000    3.12778000    0.95421000      0.328448    0.06389000   -0.17833500
Se   22.14039000    4.69433000   10.53804000      0.301845   -0.58020100   -0.19742800
Se   21.29880000    5.79442000    2.15400000      0.165393   -0.02498600    0.07112200
Se   20.73736000   11.61369000   12.12563000     -0.181358    0.38155200    0.40697600
Se   22.72827000   14.72494000    3.93608000      0.086319   -0.99364200   -1.08262900
Se   21.26822000   15.45674000   11.29464000      0.789708    0.25450100   -0.77194100
Se   23.22747000   22.22266000    1.97909000     -0.908730    1.23201900    0.40086800
Se   22.02562000    0.69101000   15.64141000     -0.674591   -0.84142900   -0.00435800
Se    3.74326000    4.69973000    9.93709000      0.589643   -0.52594000   -0.09848100
Se    4.66163000    6.37767000   18.14501000      0.159711    0.11169300    0.68090300
Se    3.79151000   11.85964000    8.17841000      0.616948    0.50940400   -0.67615800
Se    3.97322000    7.42384000   15.43255000     -0.154288   -0.18491800   -0.62129200
Se    5.96017000   20.02590000    6.28870000      0.462655    0.15849400   -0.42990900
Se   22.13770000   15.53941000   19.27885000     -0.280519   -1.01895200    0.54348300
Se    0.93252000   21.87634000   10.99584000     -0.380934   -0.67749600   -0.01703200
Se    2.63634000   20.11485000   17.81238000      0.104554    0.54800000    0.30028700
Se    7.75491000    3.60017000    7.82527000     -0.623086    0.59573200   -0.40590100
Se    5.64577000    4.55928000    0.23467000     -0.023340    0.08531100   -0.02164700
Se    7.18574000   10.98074000    6.60888000     -0.582920   -0.50021500   -0.02142100
Se    3.91291000    9.69538000   19.84403000      0.109255   -0.43205100   -0.05812900
Se    6.51362000   18.21198000    9.58629000      0.043328   -0.19319800   -1.14750700
Se    6.63049000   15.83284000   18.03273000     -0.505922    0.32546500    0.15867700
Se   10.05649000   20.00109000    7.89815000     -0.694844    0.51308300    0.02466000
Se    9.32885000    2.68222000    0.13244000     -0.890443   -0.32860100    1.35367200
Se   14.38347000    2.58427000    9.31899000     -0.345181    0.46564400   -0.15617600
Se    8.22992000    4.69763000   18.40430000      0.456762    0.41761600    0.08776000
Se   10.28159000    5.87289000    8.68575000      0.269061    0.01851700    0.61346400
Se   17.41115000   12.74253000   16.20790000     -0.313668   -0.25873600   -0.25983300
Se   13.50357000   18.88709000    7.40781000     -0.354134   -0.29191900    1.12948100
Se   14.74660000   15.99392000   18.44756000      0.141271    0.38848400   -0.79755700
Se   15.89033000   23.53532000    7.73883000     -0.352186   -0.56231400   -0.23640400
Se   18.82869000    2.01221000   16.72606000     -0.066110    0.78133900    0.84223300
Se   17.06781000    3.57439000   12.02734000      0.029011    0.02540100   -0.54685400
Se   22.28648000    3.82503000   18.18790000     -0.224513    0.27644600   -0.31387300
Se   18.35211000    9.31372000   12.79211000      0.648924    1.61772100   -0.88659100
Se   20.11850000   10.79643000   16.09101000      0.264176   -0.52300100    0.39091400
Se   15.97321000   18.16862000   10.47288000     -0.309533   -0.17477800   -0.36668500
Se   19.53738000   13.42942000   18.62936000      0.325550    1.23226300    0.65313600
Se   18.64294000   23.12314000    7.70298000      0.765697   -0.03076700    0.03082700
Se   18.40444000   19.23256000    0.76132000      0.285210    0.86822600    1.15388200
Se    4.96582000   22.79999000    8.81779000     -0.055534    0.13198900    0.50842800
Se    3.67167000    3.03560000   19.55913000      1.217430    0.07523800    0.19417000
Se    6.72911000    6.64631000   10.36972000      0.942308    0.05535200   -0.15251900
Se    4.69248000    7.36464000    0.55473000      0.011793   -0.20045400    0.01858600
Se    5.46907000   16.15177000    6.91681000     -0.308835    0.05733300   -0.33789500
Se    6.39905000   11.94985000   17.32720000      0.110562   -0.03539500   -0.45521500
Se    2.44239000   19.13612000    8.45258000      0.097737    0.00199300   -0.16511200
Se   22.94898000   19.20618000    0.62980000      0.241680   -0.41369000   -0.73645900
Se    8.97498000    0.21029000    7.36746000      0.471833   -1.16817000   -0.07050000
Se   12.37919000    4.39417000    1.77364000     -0.503149    0.10987700    0.48469100
Se   11.53609000    2.28628000    9.26311000      0.110915   -0.22922200    0.19106500
Se    8.81375000    6.91195000    0.89452000     -0.786322   -1.69502500   -0.90785900
Se   11.35518000   13.72428000    8.26241000     -0.980440   -0.13485900   -1.16806400
Se    8.87375000   14.09954000    0.63765000     -0.038130    0.50489400    0.67486400
Se   13.79632000   22.29492000   11.06811000     -0.181075    1.20272900   -0.41847800
Se   14.22853000   13.22805000   16.72253000     -1.075256    0.17022100    0.71532700
Se   17.10057000    3.00144000    8.11005000      0.246693    0.90737800    0.03451000
Se   17.55151000    5.21233000    1.68155000      0.203958   -0.17462700   -0.41022900
Se   15.04492000    7.94492000    8.74991000      1.088715    0.15935300    0.00085800
Se   15.95833000    9.14007000   17.59268000     -0.217851   -0.32169500    0.30846500
Se   14.60402000   13.52557000    8.58502000      1.013720   -0.89441400   -0.44307400
Se   16.12914000   12.68950000   19.37275000     -0.011026    0.24440100    0.50894500
Se   14.58776000   19.40945000    3.97851000     -0.496826   -0.28880500   -0.00955900
Se   19.46385000   21.17216000   18.14990000      1.086574   -0.97693400   -0.89000500
Se   21.54377000    1.64759000    7.54548000      0.339403    0.48822100    0.93775000
Se    0.52106000   23.59144000   16.01573000     -0.165835   -0.00123300    0.17202200
Se   20.75101000    7.45712000    9.24132000      0.712147   -0.90044900   -0.02786100
Se   23.52771000    7.35612000   17.03218000      0.005373   -0.12377300   -0.48911600
Se    0.36620000   11.25660000    7.77689000     -1.008129   -0.62567400    0.52153600
Se   21.93714000    7.79275000   18.67333000      0.014934    0.86132000    0.86234400
Se   21.23490000   17.20853000    7.66313000      1.550302    2.36934400   -0.62669500
Se   19.33694000   17.37257000   18.15598000      0.187977   -0.57390800    0.37810500
Se    1.11139000   22.93362000    8.92327000     -0.088286    0.74538000    0.28777400
Se    3.34121000   23.55555000   13.13586000     -0.041631    0.64529400   -1.07793900
Se    2.25322000    8.24595000    8.07149000      0.832454    0.12088300    0.10037400
Se    2.31948000    8.64255000   18.28624000     -0.102836    0.95420400   -0.80073300
Se    0.51596000   16.24169000    8.51539000      0.312075   -0.20156100   -0.33856500
Se    1.10392000   12.76906000   18.15098000     -0.271246    0.06305000    0.14072600
Se    2.72399000   19.40912000    5.63961000      0.156393   -0.02053600    0.36144100
Se   23.12983000   19.10253000   16.46982000     -0.113085    0.50738100    0.08416600
Se    6.06500000   23.19347000    3.88003000     -0.204775    0.03976300    0.42812000
Se    6.31323000    1.02410000   17.37642000     -0.101230    0.44783900    0.03188100
Se   11.03617000    6.93479000    5.19817000     -0.067724   -0.83718500    0.05238900
Se    6.34227000    7.78726000   15.67035000      0.888454   -0.04980600   -0.32641200
Se    7.34242000   14.84286000    7.90172000      0.368042   -0.33197300   -0.50469500
Se    7.97740000   19.31910000   12.74730000      0.642954    0.16805600    0.56700100
Se    8.21703000   16.28897000    3.54153000     -1.074028    0.00805900   -0.18610800
Se    9.19028000   16.70321000   15.08047000      0.140538    0.58366700    0.16811700
Se   14.95932000   21.59817000    5.53688000      0.013251   -0.23636500    0.01172800
Se   13.97814000   22.67236000   15.79571000      0.886343    1.25028700   -0.37842100
Se   13.02981000    8.79560000    4.35777000      1.288677   -0.26566600    0.21465200
Se    9.67732000    8.20449000   13.65715000      0.763956   -0.25338600   -0.30175800
Se   14.24797000   12.12905000    4.33246000     -0.200724    0.03814800    0.10148600
Se   15.36596000   15.41957000   14.46625000     -1.023726   -0.45619500   -0.93991900
Se   12.28478000   18.69452000    4.33550000      0.198184    0.25184300   -0.07609200
Se   15.89186000   19.98720000   18.14964000     -0.588951   -2.84129600   -1.27593300
Se   17.91071000    1.87388000    4.38594000      0.151533    0.07037500    0.04365900
Se   18.81237000    0.60025000   18.81611000      0.383229    0.93922000   -0.93023700
Se   19.83440000    8.14298000    5.66704000     -0.219699    0.49780600   -0.78528200
Se   19.59302000    6.45218000   16.35928000      0.691401   -0.45667500    0.12364000
Se   19.66783000   11.94367000    4.43026000      0.641982    0.07995300    0.00792100
Se   17.07922000   13.16589000   12.59634000     -0.464196   -0.35824900    0.72407400
Se   19.14188000   18.39923000    4.61706000      0.071488    0.09549500   -0.37713200
Se   20.80097000   20.53696000   14.31071000      0.382346   -0.15336900   -0.10068000
Se    5.54667000    6.83752000    6.17861000      0.124621    0.37002600    0.25328300
Se    2.69778000    2.60452000   16.57216000      1.300170    0.07696200   -0.84322500
Se    3.02164000    9.45403000    3.75648000      0.035896    0.14028300   -0.91166100
Se    4.80383000   10.34064000   14.47340000     -0.684254    1.40328600   -0.48858200
Se    5.01306000   14.46110000    4.81798000      0.156706    0.00738400    0.61380900
Se    2.10778000   16.31449000   18.38673000      0.291020    2.00872900   -1.08011700
Se    1.12827000   23.10029000    5.77326000      0.405576    0.16012000   -0.87525700
Se    3.24544000   19.95474000   13.57041000     -0.214498   -0.45078500   -0.44328300
Se   12.59432000    0.77778000    6.43584000     -0.668241    0.06951300   -0.36418100
Se    7.97694000    5.00497000   16.13999000     -0.040904   -0.61667100   -0.58517900
Se   12.24115000   11.96696000    6.75839000     -0.647374   -0.16372900    0.55746100
Se   11.31492000   13.38643000   16.82134000      0.042909    0.05407300    0.07986100
Se   10.18857000   16.59420000    8.81570000     -0.065406    0.16503100    0.68074200
Se   11.39704000   19.89883000   18.92757000     -0.679410   -0.29410400    0.54098800
Se   10.03960000   22.49836000    3.88541000     -0.783244   -0.15394000   -0.91324800
Se    8.00624000   20.80894000   19.18045000      0.472839   -0.43054100   -0.57767000
Se   15.00368000    5.22293000    5.06140000     -0.179832   -0.12064800   -0.06168900
Se   14.27666000    6.10824000   18.66102000      0.172838   -1.12811700    0.52088000
Se   16.53130000   10.44950000    7.23418000      0.070022   -0.35459800   -0.89669300
Se   17.61636000    7.49976000   13.76706000     -0.505419   -2.44502000    0.52886600
Se   16.88585000   14.20538000    5.46691000      1.088264    0.81436300   -0.18101400
Se   13.00463000   18.42209000   15.92111000     -0.312764   -0.22410700   -0.39869000
Se   15.30383000   23.33489000    3.93314000      0.663878    0.20196400    0.46922300
Se   17.61039000    4.07635000   14.23136000      0.417282   -0.01815500    0.45484300
Se   22.28202000    5.07454000    6.60490000     -0.822687   -0.11102700   -0.45163300
Se   23.08739000    4.90463000   14.18765000      0.129325    0.16315200   -0.64399900
Se   17.23023000   10.45690000    9.69940000      0.086519    0.05809400    1.00053000
Se   21.76159000   14.13272000   15.13175000      0.429614   -0.21257800    1.14995200
Se   18.13024000   16.26234000    8.53782000     -0.191227   -1.21108400    0.21892300
Se   22.47655000   16.38889000   15.98292000      0.071738   -0.17879700   -1.36782600
Se   21.22373000   23.17869000    8.34394000     -0.616015   -0.58951200   -0.21975700
Se   22.86608000   22.98269000   19.21651000     -0.214034    0.59884300   -0.51883500
Se    4.42003000    3.55655000    7.13447000     -0.244122   -0.52963300   -0.09547300
Se    5.19059000    0.18599000   14.96527000      0.271301    0.13766600    0.06812700
Se    4.21271000    4.73708000    3.38876000     -0.551541   -0.38834700   -0.18160100
Se    4.33215000    8.31181000   11.19046000     -0.130499   -0.06074600    0.03479800
Se    1.31551000   11.18968000    2.90867000      0.449535   -0.36574200   -0.19962300
Se    4.59171000   14.49335000   14.82151000      0.040084   -0.81933200   -0.07147200
Se    4.46638000   16.80088000    1.76465000      0.281751    0.82491000    0.31563000
Se    3.56056000   16.89813000   13.22068000     -0.644102   -0.52007900    0.93630900
Se    9.40812000    1.06729000    2.29234000      0.112503   -1.69887400   -0.13476500
Se   10.61987000    1.23350000   14.51069000      0.499476    0.73436700    0.06117300
Se   10.22580000    9.42006000    3.20150000     -0.928522    0.10383800   -0.56467300
Se    8.60758000    8.97393000   16.90888000      0.290743   -0.19555000   -0.15879200
Se    9.41735000   12.81707000    4.82006000     -0.155199    0.16382700   -0.89396300
Se   12.72990000   11.07143000   12.83510000     -0.147134    0.52578000    0.20999700
Se    9.62391000   19.28277000    2.03043000      1.519517   -1.88161500    0.86499200
Se    8.32498000   22.64859000   15.08983000      0.139791   -0.71033000    0.05944000
Se   18.28499000    5.12088000    8.62171000      0.105005   -0.59845500   -0.36852200
Se   14.76425000    1.17281000   16.62551000     -0.546668   -0.47882500   -0.43145500
Se   16.74708000    7.43754000    4.04918000     -0.619694   -0.45874800   -0.32013200
Se   13.00228000    7.30548000   15.05540000     -0.106851    0.88700300    0.01340500
Se   17.10831000   12.56312000    1.73997000     -0.624533   -0.94268300    0.25682300
Se   18.39786000   18.30848000   14.62377000     -0.247707   -0.19204900   -0.12109900
Se   15.32850000   16.97753000    3.70433000      0.102848   -0.31319700   -0.18322500
Se   16.97242000   20.33263000   14.10515000      0.042459   -0.20379200   -0.00048800
Se   22.83328000    2.00148000    4.10512000     -0.520077   -0.30553400    0.82286200
Se   22.08159000    0.81167000   12.14917000     -0.358314    0.70004400   -0.70724000
Se   23.64580000    8.44674000    5.08562000     -0.141098   -1.45047300   -0.37958600
Se   21.62059000    6.86448000   13.41755000      0.528677    0.73826600   -0.15265800
Se    1.39560000   16.40523000    4.68161000     -0.162043   -0.01664700    0.36386100
Se    1.42779000   12.00193000   14.95067000     -0.027372    0.35309200   -0.42886300
Se   22.85540000   20.91893000    5.98906000     -0.188328   -0.43783600   -0.50524800
Se   20.29824000   21.39876000   10.81304000      0.491054   -0.97144900    0.08979300
Se    1.99355000    3.87911000    6.54965000      0.932163    0.64482200    0.49637000
Se    1.58748000    3.17711000   12.69026000      0.026844    0.87059500   -0.53197100
Se   21.89067000   11.31999000    5.25172000     -0.326510    0.42797300   -0.80122500
Se    1.57436000    8.28378000   14.39751000     -0.396785    0.80707000   -1.10118000
Se    1.84413000   14.79027000    1.80293000     -0.782732    0.95612900   -0.74348100
Se    1.18431000   16.37632000   14.10063000      0.435019    0.67692800   -0.13994300
Se    3.74148000   21.04461000    1.84142000     -0.187935   -0.57211700    0.29856200
Se    5.28824000   17.49619000   16.94966000      0.329563    0.18264800    0.18763800
Se   11.19173000    2.75929000    5.56643000      0.439467    0.11961600   -0.44331900
Se    8.43570000    2.28085000   13.40675000      0.083685    0.00297000   -0.19721600
Se    6.15603000    8.21787000    3.24659000      0.189512    0.90377100   -0.12994000
Se    8.66552000   11.14528000   13.30122000     -0.071673   -0.84595300    0.37697300
Se    7.02008000   14.32203000    2.46696000      0.058842    0.17774500   -0.55389100
Se    9.76733000   15.27163000   13.28707000      0.293582   -0.14811200   -0.01179700
Se    7.21564000   22.49349000    9.57147000     -0.090091   -0.08330700   -0.17562400
Se    5.94476000   19.96495000   15.94288000      0.894349    0.13006300   -0.35947100
Se   13.36982000    0.60106000    3.08602000      0.161434    1.65203900    0.45094800
Se    9.83915000    5.80684000   13.24734000      0.139296   -0.36594600    0.50578600
Se   13.26820000    9.55303000    1.33339000     -0.162343    0.17971400   -1.01776800
Se   15.77414000   10.54369000   14.18981000     -0.664064   -0.25390200   -0.38090200
Se   10.01549000   16.86230000    5.76514000      0.102355   -0.58081200    0.16354800
Se   14.03796000   17.03459000   11.91163000      0.162135    0.62952600   -0.89922500
Se   14.83801000   21.18990000    1.13643000     -0.193743    0.24393000    0.02867400
Se   15.53303000   22.78019000   13.83759000     -0.454632    0.04781500    0.74292800
Se   18.38995000    5.91554000   19.24721000     -0.746674   -0.30260100    0.09998400
Se   14.89050000    5.68776000    9.65002000      0.507654    0.02855000    0.56032900
Se   20.13273000    8.26997000    2.40317000     -0.030626    0.68137500   -0.67638900
Se    2.21912000   12.24586000   12.66192000      0.327482   -0.29718900    0.65281200
Se   20.96595000   17.26548000    3.68355000     -0.216313   -0.09431900    0.21191300
Se   17.59068000   16.22887000   13.59171000      0.649933    0.45778100   -0.10017300
Se   19.70860000   22.16644000    3.80897000     -0.184539   -0.25599800   -0.51982000
Se   18.86726000    0.48430000   14.86363000     -0.237773   -0.06346700   -0.32702100
