384
23.69824000 23.69824000 19.89960000
Ge    5.18295000    6.66109000   13.22852000     -0.201149   -0.05883900   -0.19556800
Ge    6.73906000    5.28399000    3.12029000     -0.073488    0.21067400    0.68185700
Ge    1.77678000   12.85964000    6.70135000      0.837211    0.37075000   -0.24310900
Ge    9.12087000   14.35509000   15.77964000     -0.268442   -0.50914600   -0.04409400
Ge    5.23995000   15.33526000   10.02537000     -0.061879   -0.50200700    0.03000100
Ge    9.54882000   18.20881000   19.46319000      0.084821    1.21927400   -0.03029900
Ge    8.15210000   22.44086000   12.07696000     -1.661611    1.21480000   -0.32713300
Ge    5.40872000    0.92332000    0.20552000     -0.347165    0.33313300   -0.47467700
Ge    9.11581000    5.34794000   10.86864000     -0.002374    1.79547300   -0.54714600
Ge   10.69446000    6.27716000   19.24527000      0.621499   -0.05086100   -0.30277600
Ge   10.35637000    8.42275000   10.27524000     -0.089203   -0.63796600    0.66977200
Ge   13.22566000   12.28469000   19.44421000      0.184620   -0.20474900    0.29745500
Ge   11.61929000   18.69798000    9.03886000     -0.061804   -1.22695400   -0.44846200
Ge   12.52204000   15.87083000    0.87232000      0.595054    0.47746300   -2.06408000
Ge   10.88338000   23.26011000    9.09591000      0.414949   -0.00960400   -0.25742200
Ge   16.54776000   22.03166000   18.85714000     -1.115397    1.75939900   -0.20883800
Ge   19.12604000    5.32344000   11.80648000      0.018465    0.33562800   -0.25173800
Ge   19.80609000    8.51165000   17.63402000     -0.007833    0.42639500   -0.03337600
Ge   19.58843000   11.83083000    9.90638000      0.366084   -0.28433500    0.00618900
Ge   18.33688000   11.47565000   18.26151000     -0.679078   -0.33756200   -0.45347500
Ge   15.02135000   20.12745000    9.13977000     -0.619003    0.41812500    0.50239000
Ge   17.84653000   15.20677000   19.59804000      0.357646    0.43204400   -0.16981900
Ge   19.69657000    1.80172000   12.65164000      0.664809   -0.18172100    0.04058200
Ge   20.19062000    3.74867000    1.19517000     -0.465287    0.03955300    0.91806600
Ge   23.17127000    6.24181000    8.58066000     -0.313399    0.07594300    0.65983100
Ge    2.19240000    3.09163000    4.33300000      0.280661   -0.19592900   -1.68690000
Ge    1.97222000   10.41124000    9.70123000     -0.604484   -0.87357700   -0.23277200
Ge    0.82410000    9.54726000    0.25813000     -0.127461   -1.10078100    0.37829000
Ge   21.00052000   15.06670000    8.54783000     -0.616033   -1.00312700    1.04515500
Ge    0.79283000   14.88494000   19.46049000     -0.340473   -1.91576300    0.53586600
Ge   18.80567000    1.47371000    9.09786000      0.594834   -0.01429600    0.82843000
Ge    0.96211000   21.09331000    0.21455000     -0.018932   -0.57629700   -0.54249700
Ge    4.90879000    8.54363000    8.26614000     -0.500327   -0.16664200   -0.15624900
Ge    1.84301000    6.22004000   18.93961000     -0.572227   -0.01854400    0.43830300
Ge    1.70476000    9.75881000    5.96741000      0.924880    0.38736500    1.43952000
Ge    3.86380000   12.48349000   16.36846000      0.262445   -0.46339900   -0.19442200
Ge    6.26241000   18.07617000    3.71477000     -0.620015   -0.83359900   -0.44439100
Ge   23.27254000   17.41923000   18.19668000      1.079865    0.96865800    0.92827000
Ge    4.74083000   20.17904000    9.12740000     -0.320317   -0.01582400   -0.32913500
Ge    3.60566000   22.72498000   18.17738000      0.473234   -0.98583300   -1.10860400
Ge    9.89677000    2.36937000    7.51668000     -0.876616    0.12307200   -0.25221700
Ge    6.69960000    8.18908000   18.53385000      0.077412    0.06890400    0.26918500
Ge    5.85073000   13.01061000    6.85511000     -0.188554   -0.22933900   -0.46979800
Ge    8.11824000    8.83243000    1.93053000      0.467853    0.61549400    0.80515500
Ge    7.77954000   18.39708000    6.97993000     -0.049654    0.27706100    1.15540700
Ge    4.48729000   19.34740000   19.32246000     -0.485595   -0.72879000    0.01657200
Ge   11.08475000   22.41275000    6.00123000     -0.040952   -0.16553400    1.42380800
Ge    9.96996000    2.56526000   17.84462000      1.764469   -1.00538400   -1.09895600
Ge   13.49333000    6.90501000    6.07495000     -0.238853   -0.37459600   -0.08926600
Ge   13.48832000    8.26430000   18.72864000      0.250478    0.83802100    0.69604600
Ge   15.61990000   12.46923000    6.33306000     -0.561646    1.20790000    0.71179300
Ge   16.71566000   15.61189000   16.34892000      1.035898   -0.14334900    1.50077800
Ge   12.41352000   16.11070000    4.75751000      0.910284    0.96283700    1.45751400
Ge   15.24666000   17.86553000   16.60079000      0.521277    0.10530600    0.37345700
Ge   15.11816000    0.38151000    9.97011000     -0.320070   -0.69213900    0.04463400
Ge   16.33988000    4.30280000   18.47835000      0.472596    1.12708400    0.07296000
Ge   19.96617000    6.27900000    6.98852000      1.255231   -2.05787800    1.53643200
Ge   22.20345000    5.40342000   16.38184000     -0.782905   -0.00252700   -0.08014600
Ge   19.80424000    9.38626000    8.00241000     -0.607918    0.46688900    0.18190400
Ge   21.97083000   13.23361000   17.80534000      0.107441    0.10598600   -0.56972000
Ge   19.01048000   18.04788000    7.29140000     -1.398909    1.02139000   -0.14622000
Ge   20.62375000   19.36814000   16.50203000     -0.389130    0.08659700    0.70451900
Ge   19.74353000    0.57811000    5.39611000      0.107484    0.13061600    0.27739800
Ge   20.42043000   21.00858000    1.05820000     -0.185715   -0.51151400   -0.44031500
Ge    5.60777000    2.84561000   10.89944000     -0.066243   -0.06707000   -0.91805700
Ge    5.07258000    3.48608000   17.00828000      0.274259   -0.45391400    0.72843500
Ge    3.44167000    6.47899000    4.96535000     -0.440827    0.01294900    0.15470400
Ge    2.92550000    9.65038000   12.70975000      0.092793    0.16255900    0.59308300
Ge    2.67873000   16.93402000    6.92961000      0.242974    0.52819100   -0.16999300
Ge    1.05065000   14.51909000   15.87489000     -0.276652   -0.62243400   -0.05805600
Ge   22.86321000   19.97298000   10.26934000      0.086442    0.73296200    0.23234400
Ge    3.43992000   22.07117000   15.04040000     -0.390476   -0.27540100    1.15389000
Ge    9.96511000    3.29958000    2.72175000      0.640331    0.73040000    0.19409000
Ge    8.50434000    2.19181000   15.87113000     -0.957142    0.46409100   -0.11856700
Ge    9.13415000   10.30460000    5.16951000      0.313702    0.46286300    1.03550600
Ge    7.21551000   10.60133000   15.48758000      0.024724    0.43855300    0.27327900
Ge    9.65703000   14.46681000    6.46188000      0.118923    0.72347100    1.74764900
Ge   15.45766000   11.21982000   16.48389000      0.617498    0.39438100   -1.29772800
Ge    7.47124000   21.26518000    4.16201000      0.262672    0.56365300    1.45451500
Ge    8.64800000   20.18037000   15.55234000     -1.099328   -0.34231300   -0.01218300
Ge   14.83384000    1.83275000    6.85024000      0.225985    1.18835700   -0.87086600
Ge   12.94317000    2.61372000   15.58684000     -0.240893   -0.90975700   -0.08166700
Ge   15.70841000    9.76353000    4.66416000     -1.242559   -0.37253400    1.33570300
Ge   15.52452000    7.75652000   15.32270000      0.059653    0.19943000   -0.18210400
Ge   15.41442000   14.18272000    3.39516000      0.701977    0.22296000   -0.14542900
Ge   13.03393000   16.02814000   15.41213000     -0.534057   -0.60605200   -0.15602700
Ge   14.30971000   18.92300000   19.68457000     -0.670669    0.76747300    0.00883500
Ge   10.06379000   21.38391000    0.92664000      0.409638    0.39719600   -1.21785300
Ge   22.93597000    4.42954000    3.62682000      0.770597    0.29145200    0.40682800
Ge    0.23396000    2.39902000   16.39949000     -0.833072    0.22403100   -0.95470400
Ge   21.96380000    9.24232000    6.62449000      0.658401    0.34925900    0.36568300
Ge   20.55890000    9.58721000   13.99981000      0.128726    0.63898100   -0.05395000
Ge   22.95317000   16.07497000    6.00134000      0.206970    0.31573400   -0.12502200
Ge   19.49428000   14.06011000   12.79400000      0.260346   -0.74447200    0.35710000
Ge   20.37582000   20.55337000    5.51498000     -0.387391    0.36437500    0.81787700
Ge   20.80063000   23.16521000   17.82710000      0.708088    0.02688500   -0.29930900
Ge    6.38124000    4.41406000    5.70699000     -0.395573    0.01045800    0.47964700
Ge    3.38547000    2.31855000   13.88392000      0.730413   -0.05290100    1.26049500
Ge    5.33613000   10.66457000    3.24911000      0.002277    0.06485500    0.31619500
Ge    7.53249000    8.80441000   12.56140000     -0.333775    0.53712500   -0.07371000
Ge    5.46952000   15.15109000    0.34972000      0.177899   -0.14368500    0.90999800
Ge    5.09436000   12.69586000   13.17308000     -1.011524   -0.34132300    0.40532100
Ge    4.57755000   22.66264000    6.03936000      0.630688   -0.53095200   -0.54766800
Ge    6.00510000   21.39967000   13.49458000      0.384965   -0.45127600    0.42505000
Ge   15.09361000    5.88816000    2.45852000      0.176678    0.35955600    0.74477000
Ge   13.33276000    0.45056000   13.01422000     -0.214583   -0.50614900   -0.23875600
Ge   11.09787000   10.01223000   19.78592000     -0.255081    0.75199500    1.01632700
Ge   14.05872000    9.17644000   12.73942000      0.489521   -1.08627100    0.27855300
Ge   10.63034000   13.41476000    2.60338000     -0.007485    0.40715200   -0.80192900
Ge    8.30854000   17.10439000   10.84411000      0.747028   -0.68961700    0.01043600
Ge   12.54261000   22.76514000    1.64681000     -0.933860   -2.33792900   -2.83260400
Ge   10.62029000   22.27586000   14.02542000      0.520484    0.57606500    0.64014000
Ge    0.93183000    2.06883000   18.89020000     -0.052537   -0.44638800    0.81796600
Ge   12.68789000    6.05018000   12.98033000     -0.321464    0.01556800   -0.53644200
Ge   17.14826000    8.25346000   19.78238000      1.217423   -0.29323000    0.28341300
Ge   12.83882000    6.28717000    8.68467000     -1.757872    0.47605700   -1.21924000
Ge   20.93259000   13.25718000    2.83112000      0.813797   -0.40211700   -0.38927100
Ge   15.71310000   17.23815000    7.99088000      0.907907    0.87524800    0.77515200
Ge   17.06667000   21.45955000    3.04699000      0.242437   -0.26194000   -0.96485900
Ge   18.92229000   21.84223000   13.79189000     -0.858990    0.40416000   -1.08035500
Ge    0.83719000    1.69312000    2.46902000      0.134262   -0.72493100    0.09133900
Ge   22.59388000    2.23931000   10.12186000      0.036114   -0.09692900   -0.37237000
Ge   22.64358000    9.93635000    3.06677000     -0.239747   -0.04834500   -0.21248200
Ge   23.09490000    9.11094000   13.06566000      0.441552   -0.51839800   -0.22927400
Ge    2.70993000   13.37288000    3.45389000      0.589892   -0.93492600    0.49665800
Ge    0.45478000   16.37442000   11.56449000     -0.350541    0.69509900   -0.08320600
Ge    0.40848000   21.56807000    4.03740000      0.900004   -1.09139900    0.59406100
Ge   20.67281000   17.70829000   12.26578000      0.503335    0.78939700   -0.20446000
Se    2.90722000    0.18608000    0.25743000     -0.704521    0.16120900    0.53596800
Se    1.30084000    1.65764000    9.45512000     -0.494703   -0.68279200    0.04930400
Se    0.69861000    7.01065000    1.17030000      0.383804    0.88197800   -0.38514700
Se   23.33475000    9.62472000   10.55947000      0.090511   -0.30011300    0.75702100
Se   22.24020000   11.66619000    1.16552000     -0.527236    0.74563200    0.57859900
Se    0.97716000   13.92084000    8.79633000     -0.350310    0.50135600    0.39120900
Se    2.11579000   19.66701000    3.19496000     -0.436294    0.39636000    0.79503800
Se   23.47997000   18.86852000   12.45089000     -0.590414   -0.71696800   -0.80955700
Se    6.87439000    3.17129000    2.00611000      0.021691   -0.64775300   -0.48027500
Se    5.70525000    3.45806000   13.19890000     -0.429335    0.29854500    0.96846700
Se    9.31204000    4.77908000    4.90099000      0.641412    0.44889300   -0.15352200
Se    7.82592000    8.79810000    9.78999000     -0.506060   -0.20000400    0.28140400
Se    8.42324000   10.40904000    0.22390000     -0.413235    0.33736200   -0.44176800
Se    7.38113000   14.70427000   11.17147000     -0.088770    0.87005600    0.42052100
Se    7.39765000   19.85179000    2.12535000     -1.346115    0.05165300   -0.27160100
Se    9.83246000   20.85269000   12.05753000      0.380075   -1.86560100   -0.62258700
Se   12.59051000    0.79009000   19.69557000     -0.375958   -0.60829900   -0.60518700
Se   12.64148000    2.77058000   11.88068000      0.555412    0.30923000    0.59011800
Se   10.98174000    8.60188000   17.79424000      0.078079   -0.57138900   -0.63267500
Se   11.09098000    9.84050000    6.67931000     -0.341444    0.47278900    0.29907500
Se   13.20872000   13.71598000    1.73952000      0.299727   -1.20310200   -0.60296300
Se   12.62491000    8.75602000    9.27355000      0.410820   -0.19643600    0.23051600
Se   14.94384000   16.75935000    1.21384000      0.453918    0.23921200    0.27463900
Se   12.55471000   18.77908000   11.32510000     -0.805686    0.73895100    0.33684600
Se   19.83897000    3.35327000    3.99096000     -0.529699   -0.25118300   -0.71512500
Se   14.00149000    4.06589000   13.85903000     -0.371146   -0.83835500   -0.59307500
Se   16.09579000    5.51883000   16.27172000      0.175978   -0.87749900   -0.34697800
Se   20.25793000    4.22848000   13.79141000     -0.677255   -1.02585500    0.15909400
Se   19.85322000    9.69459000    0.45029000     -0.637250   -0.97720100    0.80160700
Se   16.54512000   19.76608000    7.28484000      1.092570   -0.56455600   -0.47342700
Se   19.76201000   17.38179000    0.90071000     -0.049168   -0.37652200   -1.03596300
Se   19.73098000   19.08159000   10.15912000      0.178563    0.70998700    0.82007300
Se    3.12922000    0.67078000    4.86953000     -0.526402    0.02241900   -0.20191000
Se    2.59384000    5.31685000   11.75159000     -0.749378    0.28901900    1.89808100
Se    5.86603000   11.77796000    0.86707000      0.227152   -0.44331400    0.12514400
Se    4.82043000   12.55613000   10.72073000      0.009636    0.56296900   -0.42795500
Se    3.81704000   13.01483000    0.56603000      0.157791    0.38925700    0.54868800
Se    3.37294000   17.16281000   10.94958000     -0.595462   -0.47347200   -0.38707900
Se    5.42590000   21.58850000   19.82792000      0.919464    1.14999700   -0.66172700
Se    4.93874000   19.56672000   11.90733000      0.048867    0.89194200   -0.11020500
Se   11.31270000    6.48720000    2.17032000      0.451406   -0.60489300   -0.26994700
Se    8.27002000    3.23930000   10.57589000     -0.713595   -1.46271800    0.27304700
Se   10.21813000   12.71259000   19.09158000      0.862314   -0.24176300   -1.15129100
Se   10.79281000   10.82545000   11.63724000     -1.094911    0.50619800   -1.14082800
Se   11.16124000   16.09427000    2.77794000     -1.620705   -0.26237900   -0.05895800
Se   12.25208000   15.26984000   12.87825000     -0.317190    0.08762300    0.52426600
Se   11.31864000    0.01102000   17.67122000     -0.008563    1.14070600    1.21224200
Se    9.89036000    0.34862000   11.23960000     -0.069966   -0.18800000    0.75628800
Se   11.84517000    4.01292000   17.15443000     -0.098369    0.47098900    0.38226200
Se   17.68049000    8.10606000    9.25850000      0.449737   -0.06358300   -0.25360900
Se   16.44480000    9.37478000    2.51952000      0.900386    0.19113300   -1.35730800
Se   18.07449000   13.75139000   10.58687000      0.075441    0.33562200   -1.05293200
Se   18.81121000   14.24767000    2.10908000     -0.492114    1.09187000   -0.21090700
Se   13.91286000   15.64528000    8.12487000     -0.824633    0.64262500   -0.57504000
Se   18.12170000   22.26057000    0.68808000      0.455224    0.57907900    2.48144000
Se   17.07089000    0.67356000   11.18736000      0.563797    0.00207900    0.04236500
Se   23.27767000    3.10179000    0.92646000      0.267564    0.11586000   -0.17696200
Se   22.19767000    4.68775000   10.56030000      0.117937   -0.53354500   -0.09358300
Se   21.32310000    5.72885000    2.15324000      0.059546    0.08672400    0.01600300
Se   20.69820000   11.62535000   12.15598000     -0.213058    0.40348700    0.15744400
Se   22.75100000   14.72624000    3.94465000      0.039733   -0.85910800   -0.71976200
Se   21.30618000   15.43363000   11.27798000      0.734924    0.32381200   -0.87463800
Se   23.26122000   22.26446000    2.00336000     -0.628479    0.96090200    0.20907200
Se   22.03151000    0.69728000   15.62472000     -0.932129   -0.69592600    0.00729000
Se    3.76881000    4.67121000    9.98980000      1.123620   -0.85085800   -1.21386400
Se    4.57124000    6.37238000   18.18512000      0.358200    0.03059000    0.41477100
Se    3.80726000   11.87817000    8.17250000      0.553647    0.38262400   -0.48602400
Se    4.01089000    7.39453000   15.40357000     -0.202959   -0.21309400   -0.43032400
Se    5.97249000   20.03877000    6.24451000      0.424035    0.15072200   -0.40101500
Se   22.09798000   15.54769000   19.28369000     -0.144179   -1.02612300    0.43021400
Se    0.92606000   21.84635000   10.97549000     -0.235948   -0.41657100   -0.09621100
Se    2.61813000   20.08928000   17.86192000      0.088421    0.53038600    0.28778100
Se    7.76107000    3.54219000    7.81058000     -0.392399    0.47973600   -0.33034800
Se    5.63269000    4.52831000    0.19665000      0.105548    0.12804300    0.14532600
Se    7.14945000   10.92821000    6.58332000     -0.501489   -0.45786200   -0.04809000
Se    3.91067000    9.68116000   19.79274000      0.221850   -0.47622400    0.17399200
Se    6.52641000   18.22743000    9.58028000      0.251911   -0.26860600   -1.01055700
Se    6.61867000   15.81361000   18.00723000     -0.353084    0.19137400    0.30035300
Se   10.05863000   20.03303000    7.95377000     -0.832830    0.81343400   -0.16141300
Se    9.32226000    2.75454000    0.14665000     -0.699473   -0.47159100    1.51516200
Se   14.39142000    2.59471000    9.25515000     -0.161765    0.04071400    0.17964400
Se    8.24529000    4.67082000   18.42416000      0.153150    0.62600300   -0.53509300
Se   10.26557000    5.86659000    8.64771000      0.195744   -0.03644000    0.75638100
Se   17.45396000   12.74614000   16.16719000     -0.466523   -0.54368000   -0.05788700
Se   13.47215000   18.90966000    7.45528000     -0.010451   -0.30200800    0.73021800
Se   14.75452000   15.95845000   18.44355000      0.149513    0.44997000   -0.84994600
Se   15.89551000   23.52837000    7.68864000     -0.273339   -1.05888700    0.13036500
Se   18.85379000    1.98192000   16.73907000     -0.062909    1.20254100    1.00679100
Se   17.08055000    3.59006000   12.01291000     -0.119380   -0.09757300   -1.12904700
Se   22.34132000    3.84885000   18.19937000     -0.202171    0.15418300   -0.29180300
Se   18.36691000    9.36531000   12.86168000      0.400000    1.16337400   -0.67306400
Se   20.05125000   10.82152000   16.14781000      0.336121   -0.78736500    0.01370800
Se   15.96284000   18.20988000   10.48705000     -0.019075   -0.40075300   -0.25306700
Se   19.51068000   13.49136000   18.60121000      0.517788    1.17815300    0.45808700
Se   18.61271000   23.11990000    7.65006000      0.899009   -0.05603500    0.07600600
Se   18.35699000   19.27446000    0.72269000      0.519023    0.50546400    1.25615000
Se    4.94798000   22.74356000    8.84383000     -0.059408    0.12589000    0.45107600
Se    3.64689000    3.04750000   19.58586000      1.093052    0.06502400    0.24964900
Se    6.70261000    6.61278000   10.37707000      1.131852    0.41302400   -0.24875500
Se    4.77232000    7.31911000    0.56215000     -0.119184   -0.02721100    0.16332100
Se    5.51581000   16.11969000    6.96292000     -0.550460    0.32422700   -0.62947500
Se    6.41851000   11.93462000   17.37022000      0.098439   -0.09387100   -0.53256900
Se    2.44932000   19.12430000    8.41869000      0.051931    0.07999600    0.00753800
Se   22.90097000   19.24508000    0.62631000      0.333421   -0.35531500   -0.69394100
Se    9.00066000    0.16238000    7.39624000      0.374496   -0.86633000   -0.27266800
Se   12.35715000    4.39150000    1.78700000     -0.584305    0.15589900    0.51811400
Se   11.51628000    2.30548000    9.25289000      0.341342   -0.16029300    0.66437200
Se    8.84698000    6.89467000    0.88094000     -0.994549   -1.15145600   -0.48186600
Se   11.35270000   13.77972000    8.27885000     -1.017834   -0.22447000   -1.30284000
Se    8.84522000   14.08090000    0.60874000      0.017309    0.51375800    0.77112600
Se   13.79706000   22.28911000   11.05068000     -0.223797    1.13933200   -0.44516100
Se   14.31351000   13.22882000   16.69380000     -1.153435    0.38891400    0.76975700
Se   17.14726000    3.03028000    8.07315000      0.085477    1.07495400    0.06406200
Se   17.53109000    5.19228000    1.73000000      0.368609   -0.27195800   -0.51524300
Se   15.07843000    7.90526000    8.77978000      0.968072    0.83487400   -0.18863000
Se   15.95708000    9.12077000   17.56450000     -0.207558   -0.32618500    0.33084200
Se   14.52738000   13.55021000    8.58208000      1.331272   -1.47519200   -0.24526400
Se   16.06431000   12.64326000   19.38622000      0.142581    0.27368500    0.56065600
Se   14.58163000   19.47094000    3.96637000     -0.627362   -0.25354400    0.11618200
Se   19.43265000   21.17151000   18.14614000      1.171674   -0.97899000   -0.88051800
Se   21.57230000    1.62339000    7.48687000      0.150793    0.13598300    1.00355200
Se    0.48618000   23.58252000   15.99244000      0.127872   -0.19229200    0.21468800
Se   20.75732000    7.45650000    9.17509000      0.702631   -0.92846800    0.29357300
Se   23.48683000    7.36208000   17.01068000      0.047956    0.06243900   -0.28104700
Se    0.37147000   11.18503000    7.76714000     -0.891567   -0.22653200    0.47091400
Se   21.93506000    7.76671000   18.71175000      0.178909    0.81318900    0.68393000
Se   21.15122000   17.23582000    7.67196000      2.019671    1.22128200   -0.27637500
Se   19.30636000   17.44092000   18.18093000      0.192979   -0.54439700    0.32882700
Se    1.12200000   22.95340000    8.89703000     -0.043409    0.86104600    0.49782700
Se    3.37882000   23.62149000   13.14848000     -0.106543    0.47114700   -1.35457000
Se    2.27607000    8.21831000    8.09639000      0.781409    0.46266900   -0.10138800
Se    2.33920000    8.63166000   18.27948000     -0.319482    0.69672700   -0.76268400
Se    0.55256000   16.23887000    8.47254000      0.153914   -0.00730900   -0.27983300
Se    1.10487000   12.80437000   18.14206000     -0.329898    0.23133300    0.20273700
Se    2.75215000   19.41729000    5.65864000      0.154314    0.02745900    0.12537600
Se   23.13980000   19.11925000   16.48118000     -0.121437    0.62724500   -0.01933500
Se    6.13890000   23.22427000    3.92415000     -0.284924   -0.16763000    0.48557000
Se    6.31665000    0.97330000   17.41258000     -0.096538    0.55365500    0.00792100
Se   11.09697000    6.91809000    5.16787000     -0.101957   -0.90726200    0.11201400
Se    6.39938000    7.76833000   15.64728000      0.652829   -0.12089200   -0.21263500
Se    7.38162000   14.91186000    7.85188000      0.706678   -0.61297500   -0.23408900
Se    7.98106000   19.27013000   12.80181000      0.789113    0.40083300    0.48869500
Se    8.19898000   16.33807000    3.52944000     -0.820611   -0.26181500   -0.13344800
Se    9.19748000   16.69657000   15.08452000      0.244066    0.16154200   -0.06883600
Se   14.93144000   21.55285000    5.56154000      0.151168   -0.06660200   -0.38356800
Se   13.96930000   22.74371000   15.75470000      0.694596    0.70351700   -0.16307300
Se   13.02817000    8.77066000    4.30448000      1.227205   -0.23108400    0.17836600
Se    9.66814000    8.19210000   13.63903000      0.361056   -0.05188500   -0.48753300
Se   14.28698000   12.18475000    4.30635000     -0.670013   -0.49534600    0.22082000
Se   15.39340000   15.41662000   14.41562000     -1.552178   -0.40456200   -0.68547400
Se   12.27182000   18.75609000    4.34871000      0.471528   -0.11523900   -0.06031400
Se   15.88942000   19.95789000   18.04189000     -0.566979   -2.17455800   -0.89553100
Se   17.94777000    1.87594000    4.38130000      0.019206    0.20287000   -0.05217400
Se   18.85201000    0.61634000   18.77915000      0.066902    0.96519400   -0.54860800
Se   19.83095000    8.13612000    5.66503000     -0.557489    1.15874100   -1.65266400
Se   19.58612000    6.40907000   16.39643000      0.680903   -0.45379100    0.08062200
Se   19.62626000   11.94837000    4.38549000      0.560243   -0.14527400    0.36408400
Se   17.09587000   13.14199000   12.57105000     -0.657143   -0.45505900    0.91260300
Se   19.15681000   18.40927000    4.60288000      0.278618    0.00906500   -0.41042900
Se   20.78313000   20.58459000   14.34239000      1.150839   -0.71526000    0.16452100
Se    5.54009000    6.86231000    6.17835000      0.245764    0.17991600    0.25799800
Se    2.72731000    2.66940000   16.66524000      1.103645    0.01173400   -1.01624100
Se    3.01591000    9.42560000    3.79943000      0.216831    0.14980800   -1.02142000
Se    4.83193000   10.36846000   14.50744000     -0.808223    1.25093900   -0.59458700
Se    5.00911000   14.48154000    4.79957000      0.132028   -0.12198500    0.76421000
Se    2.11524000   16.38386000   18.41038000     -0.146230    1.59806400   -0.80824600
Se    1.15249000   23.11435000    5.75782000      0.494569    0.42776600   -0.56401100
Se    3.23808000   19.97075000   13.53260000     -0.174420   -0.19469700   -0.29992200
Se   12.58902000    0.83270000    6.45266000     -0.570966   -0.53639000   -0.45260200
Se    7.93610000    4.98770000   16.09513000      0.017171   -0.73573600   -0.05578300
Se   12.25953000   11.92984000    6.75252000     -0.685783   -0.03534400    0.58408800
Se   11.28295000   13.46783000   16.81757000      0.203081    0.06480300    0.18896300
Se   10.19124000   16.59031000    8.79345000      0.090000    0.34764900    0.78947100
Se   11.37013000   19.89101000   18.89192000     -0.597608   -0.12538500    0.65448100
Se   10.00299000   22.47585000    3.92057000     -0.839289   -0.04515000   -1.27029300
Se    8.01224000   20.81207000   19.15677000      0.542572   -0.40264400   -0.37467800
Se   15.01071000    5.22842000    5.10294000     -0.053891   -0.08973200   -0.18250200
Se   14.24403000    6.09734000   18.69150000      0.131967   -0.94224000    0.58187900
Se   16.48880000   10.42847000    7.22944000      0.248947   -0.43595100   -0.82786500
Se   17.64641000    7.46104000   13.75005000     -0.298142   -1.84367500    0.19224000
Se   16.88252000   14.20259000    5.41008000      0.751130    0.30439900    0.37111000
Se   12.98771000   18.39607000   15.92565000     -0.194264    0.15413900   -0.29048600
Se   15.28876000   23.37831000    3.90945000      0.771598   -0.29786100    0.86623000
Se   17.63120000    4.05850000   14.16835000      0.480638    0.11557200    1.03525500
Se   22.29726000    5.11579000    6.56626000     -0.986654   -0.06504000   -0.39467400
Se   23.12877000    4.90694000   14.11876000     -0.234545    0.34778700   -0.02534300
Se   17.27429000   10.41745000    9.68627000     -0.229693    0.55483900    1.16066500
Se   21.78132000   14.16361000   15.08956000      0.547042   -0.29816300    1.23709600
Se   18.08642000   16.25409000    8.58980000     -0.134985   -0.64264400   -0.11653900
Se   22.51741000   16.38817000   15.97643000     -0.165790   -0.01707100   -1.41856000
Se   21.20938000   23.13598000    8.32967000     -0.623409   -0.13566600   -0.23897100
Se   22.83934000   23.00249000   19.18972000      0.015406    0.40313600   -0.28203000
Se    4.40587000    3.55878000    7.17147000     -0.208012   -0.56482900   -0.31172300
Se    5.22558000    0.21201000   14.89937000      0.201160   -0.16288200    0.28008700
Se    4.19058000    4.72931000    3.32565000     -0.498547    0.00773200    0.40758900
Se    4.34049000    8.31811000   11.15517000     -0.230046    0.01450500    0.35978400
Se    1.35482000   11.19512000    2.98758000      0.273715   -0.39485600   -0.24398200
Se    4.55036000   14.44669000   14.85937000      0.224289   -0.46580600   -0.14925900
Se    4.45581000   16.83583000    1.77178000      0.529663    0.59728800    0.13516600
Se    3.57543000   16.90551000   13.22751000     -0.865515   -0.47348900    0.65692200
Se    9.45761000    1.00089000    2.27850000      0.269877   -0.72871100   -0.04364800
Se   10.59780000    1.27413000   14.54570000      0.532680    0.52040900   -0.03246300
Se   10.21667000    9.38894000    3.26344000     -0.867926   -0.06034900   -0.89637200
Se    8.56573000    8.96956000   16.91928000      0.730131   -0.20750700   -0.18193000
Se    9.39427000   12.82187000    4.83144000     -0.225785   -0.02981400   -0.93749300
Se   12.73806000   11.07609000   12.80122000      0.265109    1.18930700    0.76691400
Se    9.63194000   19.21866000    2.05003000      0.897614   -1.06112300    0.55108200
Se    8.36851000   22.66924000   15.12008000      0.276167   -0.64523000   -0.09398800
Se   18.32741000    5.15105000    8.63337000     -0.046481   -0.80632100   -0.30908900
Se   14.74884000    1.15286000   16.63263000     -0.342236   -0.17504500   -0.26500200
Se   16.76800000    7.43376000    4.02763000     -0.763386   -0.12215200   -0.27886000
Se   12.96260000    7.30472000   15.00721000      0.199517    0.94111000    0.10490800
Se   17.15169000   12.52747000    1.73759000     -0.595868   -0.51957000    0.26688800
Se   18.47064000   18.29732000   14.58937000     -0.466039    0.07835000   -0.15200900
Se   15.36653000   16.97177000    3.65205000     -0.073647   -0.30743100   -0.03573200
Se   16.95205000   20.34205000   14.06362000      0.230442   -0.10313600    0.01252200
Se   22.75674000    2.00838000    4.09707000     -0.288241   -0.15608300    0.49521900
Se   22.10799000    0.79346000   12.14820000     -0.508269    0.79719100   -0.61385500
Se   23.63869000    8.47340000    5.10160000     -0.178545   -1.90541100   -0.48782000
Se   21.64235000    6.86044000   13.38940000      0.477139    0.56861200   -0.16161600
Se    1.34973000   16.47560000    4.75150000     -0.240571    0.02402000    0.26675500
Se    1.40772000   11.98301000   14.94523000      0.055779    0.48303100   -0.53934100
Se   22.83798000   20.94225000    6.02273000     -0.279997   -0.51299100   -0.53524200
Se   20.24036000   21.41055000   10.89243000      0.337113   -1.26147400   -0.14783200
Se    1.98299000    3.81307000    6.49519000      0.772745    1.08778200    1.52775800
Se    1.56525000    3.17367000   12.72033000     -0.519139    0.92705100   -0.95276500
Se   21.88089000   11.33363000    5.21859000     -0.512903    0.30983400   -0.67206400
Se    1.59199000    8.21732000   14.36057000     -0.518663    0.77063000   -1.03427900
Se    1.83274000   14.78295000    1.80635000     -0.980319    1.34593400   -0.85745400
Se    1.15212000   16.38758000   14.05469000      0.720680    0.48683500    0.00364700
Se    3.72915000   21.04620000    1.79401000     -0.362715   -0.77419100    0.42653900
Se    5.33693000   17.50751000   16.99166000      0.146885    0.25459000    0.08989500
Se   11.23309000    2.69344000    5.57847000      0.281148    0.39868500   -0.51790800
Se    8.43543000    2.27965000   13.41200000      0.136896    0.02075600   -0.00111300
Se    6.13483000    8.17115000    3.18753000      0.232010    1.00261700   -0.15697800
Se    8.73146000   11.13441000   13.33661000     -0.124130   -0.74765300    0.24531000
Se    7.01695000   14.25705000    2.45869000     -0.027673    0.41117700   -0.41587100
Se    9.77144000   15.26990000   13.24093000      0.316681    0.11615200    0.34576600
Se    7.19535000   22.53196000    9.65009000     -0.117138    0.03585300   -0.25217700
Se    5.95943000   19.98106000   15.91343000      0.780153    0.24010300   -0.34971100
Se   13.33119000    0.56051000    3.08239000      0.393140    2.60382600    1.21145500
Se    9.77626000    5.81954000   13.28537000      0.133153   -0.57293800    0.36212700
Se   13.27931000    9.53557000    1.38970000     -0.233102    0.17063500   -1.04089900
Se   15.74793000   10.59760000   14.14655000     -0.582513   -0.33020600   -0.31360000
Se    9.99974000   16.87494000    5.76547000      0.183330   -0.59459500    0.06229800
Se   14.01766000   17.09225000   11.90309000      0.326511    0.15200600   -0.74958800
Se   14.85500000   21.18987000    1.13406000     -0.186551    0.22934600   -0.10225700
Se   15.50125000   22.73904000   13.82606000     -0.233978    0.01372200    0.62816500
Se   18.47535000    5.89844000   19.28976000     -0.995226   -0.29399400   -0.00973200
Se   14.91836000    5.72583000    9.64712000      0.404034   -0.55020700    0.81126800
Se   20.16722000    8.24580000    2.42237000     -0.037939    0.90701300   -0.79486000
Se    2.29023000   12.28399000   12.65950000      0.305063   -0.45651100    0.84396500
Se   21.00941000   17.29986000    3.66458000     -0.315017   -0.02775700    0.20617000
Se   17.54732000   16.25896000   13.63912000      0.884471    0.38961900   -0.35604800
Se   19.70053000   22.16912000    3.76909000      0.012208   -0.27205000   -0.24087300
Se   18.88917000    0.51154000   14.87553000     -0.314936   -0.44523400   -0.63298800
