384
23.69824000 23.69824000 19.89960000
Ge    5.15471000    6.63201000   13.38260000      0.392983   -0.61987900   -1.37704700
Ge    6.82974000    5.26822000    3.03216000     -0.359915    0.32116400    1.11495600
Ge    1.84843000   12.83567000    6.70532000      0.185417    0.15125500    0.24394700
Ge    9.16975000   14.25763000   15.77564000     -0.959061    0.04970300   -0.41651500
Ge    5.36282000   15.36185000   10.04157000     -0.841686   -0.49719900   -0.16390000
Ge    9.54848000   18.29782000   19.42769000     -0.373209    0.50209600    0.14076300
Ge    8.03806000   22.57951000   12.10239000     -1.449193   -0.83934900    0.75607400
Ge    5.27249000    1.00073000    0.13922000      0.491840    0.35340200   -0.26124500
Ge    9.06855000    5.39944000   10.84877000     -0.307566    0.98452400   -0.27523100
Ge   10.62937000    6.33346000   19.18271000      0.982108   -0.36015600   -0.75318500
Ge   10.28990000    8.35813000   10.37038000      0.097302   -0.84727600    0.96520700
Ge   13.18602000   12.16430000   19.45567000      0.301021    0.02133600    0.46886200
Ge   11.63285000   18.80957000    9.02245000     -0.974089   -1.75965400    0.78316000
Ge   12.57271000   15.90669000    0.76185000      0.329989   -0.17932800   -1.44738400
Ge   10.89814000   23.28287000    8.98991000      0.812763   -0.22386600    0.88334300
Ge   16.51521000   22.06647000   18.86091000     -1.149230    0.32795300   -0.28287200
Ge   19.17112000    5.40105000   11.76914000      0.177733    0.13636800    0.22686800
Ge   19.80568000    8.41217000   17.72324000     -0.116891    0.50229000    0.11004300
Ge   19.56704000   11.85400000    9.83903000      0.345167   -0.03059000    0.41834900
Ge   18.39634000   11.49455000   18.32559000     -0.638835    0.10705800   -0.26870900
Ge   15.06127000   20.08622000    9.20709000     -0.593814    1.69146600    0.03156400
Ge   17.81101000   15.14637000   19.60704000      0.122756    0.51494500    0.05648200
Ge   19.74267000    1.77897000   12.66034000      0.521192   -0.48374900   -0.16898200
Ge   20.00704000    3.71470000    1.36930000     -0.411175   -0.16565900    0.35961700
Ge   23.08862000    6.19616000    8.65171000      0.227821    0.00267100    0.16332300
Ge    2.15060000    3.10479000    4.30814000      0.552974   -0.17907700   -2.38092800
Ge    1.97046000   10.47058000    9.72329000     -0.511505   -0.97009900   -0.21945300
Ge    0.84202000    9.46552000    0.30752000      0.055746   -0.86476000    0.15932000
Ge   20.90627000   14.89882000    8.52924000     -0.375628    0.75059000    0.71360600
Ge    0.74773000   14.91562000   19.53832000      0.146129   -0.65029900   -0.72283400
Ge   18.85508000    1.48870000    9.01085000      0.459967   -0.06456800    0.85027200
Ge    1.10504000   20.99058000    0.20566000     -0.713731   -0.17783800    0.23516900
Ge    4.85863000    8.63210000    8.28591000     -0.354891   -0.10382200   -0.13962900
Ge    1.90071000    6.09463000   18.99482000     -0.950503    0.19267900    0.02628800
Ge    1.67792000    9.82346000    5.99020000      0.929216   -0.03838500    1.24742900
Ge    4.03439000   12.45322000   16.33376000     -0.110642   -1.13349200    0.74998900
Ge    6.31559000   18.14712000    3.72154000     -1.110119   -0.77764800   -0.58748000
Ge   23.18915000   17.44042000   18.16090000      1.155630    0.50885400    1.35494500
Ge    4.77457000   20.08859000    9.11583000     -0.520562    0.03369700   -0.04426000
Ge    3.44625000   22.60563000   18.16074000      0.681915   -0.72245900   -0.95383900
Ge    9.99962000    2.30058000    7.56473000     -2.086101    0.44535300   -1.14169400
Ge    6.75286000    8.16884000   18.47422000     -0.306134    0.03159000    0.53329500
Ge    5.89695000   13.03522000    6.97532000     -0.134292   -0.26568300   -0.96558700
Ge    8.13922000    8.89552000    1.95622000      0.432557   -0.01198100    0.20060300
Ge    7.74295000   18.49472000    7.06885000      0.283402   -0.04845000    0.95992600
Ge    4.49741000   19.26506000   19.36115000     -0.174472   -0.04378500    0.43725000
Ge   11.05263000   22.46259000    6.04929000      0.133723   -0.38170700    1.01607400
Ge   10.03170000    2.53175000   17.82340000      1.160077   -1.18616300    0.38260000
Ge   13.47904000    6.87861000    6.05761000      0.056291   -0.14848100    0.16791800
Ge   13.46279000    8.31671000   18.74492000      0.698397    0.25390200    0.49451300
Ge   15.55246000   12.42777000    6.41230000     -0.219459    2.02203500   -0.16784600
Ge   16.68798000   15.59211000   16.39506000      0.550899   -0.43666600    0.51151400
Ge   12.40820000   16.09218000    4.81914000      0.363502    1.33934300    0.55383700
Ge   15.30530000   17.77205000   16.63125000     -0.220725   -0.00037100    0.10220900
Ge   15.10056000    0.28838000    9.93878000      0.588240    0.45781200   -0.14158700
Ge   16.32738000    4.37316000   18.53097000      0.342254    1.21693600   -0.20822000
Ge   19.92119000    6.32378000    6.99089000      1.375774   -2.04590900    0.82304500
Ge   22.19682000    5.39316000   16.39860000     -0.621419   -0.07541900   -0.68012500
Ge   19.85236000    9.46647000    7.99655000     -0.423476    0.31948400    0.17020400
Ge   22.02916000   13.18489000   17.68869000     -0.263320    0.13280900   -0.19782600
Ge   18.85980000   18.19712000    7.34460000     -0.680963   -0.16334300    0.08369500
Ge   20.62113000   19.34402000   16.57083000     -0.317286    0.15341400    0.43426000
Ge   19.70867000    0.57317000    5.44868000      0.515282   -0.47145900    0.11110700
Ge   20.34997000   20.95735000    0.97552000      0.180500   -0.25813000   -0.38353800
Ge    5.58033000    2.75260000   10.83409000     -0.157542   -0.02320100    0.23766900
Ge    5.17460000    3.49693000   17.02641000      0.673706   -0.41607200    0.55856800
Ge    3.47571000    6.60851000    4.97548000     -0.193092   -0.51909200   -0.30780300
Ge    2.80739000    9.57868000   12.77118000      0.776611    0.43381000   -0.48699400
Ge    2.63602000   16.87829000    7.06664000      0.996946    0.25235900   -0.59453200
Ge    0.86774000   14.46001000   15.90978000      0.315576   -0.63943000   -0.48490300
Ge   22.92219000   20.04773000   10.36205000     -0.389165    0.39410800   -0.72919500
Ge    3.37174000   22.20358000   15.12019000     -0.064227   -0.14295600    0.35894000
Ge    9.98570000    3.39420000    2.82020000      0.200283   -0.45888000   -0.17193700
Ge    8.40764000    2.28082000   15.98173000     -1.016939    0.39361100   -0.52138300
Ge    9.17519000   10.27376000    5.24722000     -0.403992    1.00935900    1.00389500
Ge    7.22898000   10.53762000   15.50549000      0.003526    0.64703000    0.12272900
Ge    9.75728000   14.49413000    6.48313000     -0.277998    0.46278500    0.79945300
Ge   15.43864000   11.20174000   16.40487000      0.943683   -0.09530300   -1.07413000
Ge    7.50443000   21.20207000    4.22225000      0.127039    0.67684700    0.52564000
Ge    8.57319000   20.21683000   15.52483000     -0.452500   -0.68312600    0.13423100
Ge   14.88541000    1.74653000    6.85306000      0.113760    1.80393600   -1.36185200
Ge   12.94258000    2.48466000   15.54407000     -0.710377   -0.28728900   -0.06762400
Ge   15.75340000    9.81433000    4.70978000     -1.135734   -0.81873100    0.30610700
Ge   15.57355000    7.74585000   15.28279000     -0.209969    0.16916600   -0.31960600
Ge   15.31299000   14.27469000    3.47858000      1.185009    0.56950100   -0.42555100
Ge   12.91330000   16.14326000   15.39878000     -0.187503   -1.98366600   -0.33161300
Ge   14.32103000   18.98345000   19.65973000     -0.565275    0.79645600   -0.37104700
Ge   10.09451000   21.43955000    0.93579000      0.028094   -0.59327600   -0.55194800
Ge   22.93387000    4.50812000    3.62438000      1.222289   -0.19610600    0.76641800
Ge    0.29498000    2.37678000   16.37700000     -0.594560    0.15363800   -0.69951000
Ge   21.83112000    9.21153000    6.48618000      0.905354    0.69859900    0.34453100
Ge   20.68708000    9.53999000   13.95263000     -0.203491    0.65152500    0.33810900
Ge   22.94033000   16.10051000    6.12840000     -0.450046   -0.05320000   -0.41006600
Ge   19.54111000   14.01092000   12.66496000      0.136484   -0.39589100    0.77526500
Ge   20.36807000   20.55616000    5.53821000     -0.601467    0.48456100    0.36147900
Ge   20.77239000   23.15265000   17.83634000      1.383048   -0.38209500   -0.52739900
Ge    6.34595000    4.32898000    5.79232000     -0.375076    0.34323500   -0.00400300
Ge    3.33087000    2.37983000   13.76208000      1.598575    0.56793700    2.11085100
Ge    5.35509000   10.64403000    3.19049000     -0.250852   -0.17095800    0.83501400
Ge    7.41145000    8.87719000   12.44998000      0.271329    0.34792400    0.21646200
Ge    5.54087000   15.13840000    0.44330000     -0.334143    0.24389200    0.69377800
Ge    5.12205000   12.63959000   13.31984000     -0.925482    0.08337100   -0.71798400
Ge    4.62822000   22.57186000    5.95233000      0.518416   -0.15962400   -0.50479100
Ge    5.99349000   21.46808000   13.59812000      0.450871   -0.52269400    0.33520000
Ge   15.14564000    5.87430000    2.50832000     -0.142695    0.40814900    0.75552900
Ge   13.39006000    0.46809000   12.92662000     -0.186589   -0.68595200   -0.04670000
Ge   11.09205000    9.99814000    0.03293000     -0.213347    0.44547000    0.23835800
Ge   14.01651000    9.18531000   12.78339000      0.426803   -1.41071600    0.17184500
Ge   10.56704000   13.39594000    2.59342000      0.267006    0.32744000   -0.84359300
Ge    8.32292000   16.97010000   10.87536000      0.954744    0.49649400   -0.20895900
Ge   12.56111000   22.67315000    1.62336000     -0.501964   -1.57585900   -1.77557000
Ge   10.78832000   22.27313000   14.07194000     -0.196891    0.63134900    0.35553200
Ge    1.03694000    2.02854000   18.91007000     -0.289846   -0.58934500    0.55985900
Ge   12.71226000    5.94890000   12.93879000     -0.803151    0.64066900   -0.53398800
Ge   17.13354000    8.13291000   19.82610000      1.077866   -0.06020200    0.05143000
Ge   12.80266000    6.36744000    8.65705000     -1.047685    0.00206400   -0.76976000
Ge   20.95604000   13.16791000    2.93171000      1.159975    0.69519700   -1.56607800
Ge   15.58511000   17.41285000    8.10635000      1.757342    0.30549500    0.57742400
Ge   17.11479000   21.50671000    2.94649000      0.004610   -0.65601200   -0.03088600
Ge   18.96468000   21.79685000   13.80247000     -1.693038    1.01598400   -1.51860800
Ge    0.79744000    1.63009000    2.49145000     -0.270483   -0.76132800    0.22952700
Ge   22.39017000    2.22086000   10.07684000      1.039835   -0.17973300   -0.54887700
Ge   22.67743000    9.83764000    3.12084000     -0.475241    0.25027500   -0.73663100
Ge   23.24617000    9.09942000   12.95839000     -0.312443   -0.42531000   -0.15217700
Ge    2.70719000   13.35750000    3.35032000      0.931346   -0.70266200    0.44428600
Ge    0.46990000   16.41190000   11.48243000     -0.238185    0.62679300   -0.12949900
Ge    0.41654000   21.58980000    4.16852000      0.257513   -1.20919100   -1.06686700
Ge   20.63947000   17.69182000   12.30772000      0.597855    0.62829500   -0.76230000
Se    2.97042000    0.08010000    0.32893000     -1.273727    0.09910300    0.27875000
Se    1.31377000    1.69614000    9.42502000     -0.936172   -0.86674900    0.24296100
Se    0.72569000    7.01808000    1.10974000      0.354786    0.70467400    0.16679000
Se   23.28907000    9.70222000   10.51410000      0.238219   -0.25540100    0.69479500
Se   22.27719000   11.64513000    1.22390000     -0.645974    0.72720800    0.54691700
Se    0.93622000   13.94912000    8.79861000     -0.271804   -0.12252000    0.15285800
Se    2.05584000   19.58507000    3.30767000     -0.169643    0.89523600    0.38349600
Se   23.42237000   18.89400000   12.42677000     -0.314145   -0.79168300   -0.10669000
Se    6.84822000    3.10861000    2.14248000      0.171015   -0.96836400   -0.78194000
Se    5.64579000    3.49423000   13.25186000     -0.658735   -0.13554700    0.13667200
Se    9.36097000    4.83000000    4.95736000      0.424024    0.32427500   -0.23893200
Se    7.84916000    8.82575000    9.79927000     -0.807235   -0.32638500    0.16217400
Se    8.41633000   10.47867000    0.20872000     -0.377397   -0.16838200   -0.16656200
Se    7.41020000   14.75000000   11.17251000      0.056797   -0.13540200    0.70286300
Se    7.29689000   19.86680000    2.03826000      0.267883   -0.04457600    0.25677700
Se    9.81163000   20.86818000   12.12591000     -0.750988   -1.02351600   -0.36863300
Se   12.54285000    0.72154000   19.73389000     -0.230074   -0.17422300   -0.68704000
Se   12.65734000    2.67204000   11.94795000      0.514047    0.70957600    0.16718300
Se   10.97407000    8.59448000   17.78800000      0.213428   -0.08579200    0.00783500
Se   11.10116000    9.89583000    6.71175000     -0.327971   -0.23782700    0.57760500
Se   13.26347000   13.68339000    1.71673000     -0.123284   -0.79261000   -0.91404400
Se   12.46925000    8.72715000    9.30974000      0.822558    0.11321300    0.09204800
Se   14.93208000   16.78475000    1.20545000      0.568458    0.31381800   -0.08860700
Se   12.51876000   18.84143000   11.34489000     -1.206134    1.26075000    0.13067900
Se   20.00050000    3.27290000    3.95817000     -0.828346   -0.23355000   -0.24452200
Se   13.97585000    4.02403000   13.71888000     -0.111562   -1.18018300    0.01459700
Se   16.13958000    5.55492000   16.21107000      0.159017   -1.09054000    0.07927600
Se   20.21713000    4.07964000   13.79570000     -0.240686   -0.21853800   -0.06846200
Se   19.80395000    9.73676000    0.55786000     -0.531824   -0.89356100    0.43349200
Se   16.59251000   19.71509000    7.22571000      0.255630   -0.31480000   -0.20272400
Se   19.75743000   17.44523000    0.95848000     -0.213233   -0.13578000   -0.96246000
Se   19.78449000   19.04997000   10.00578000      0.118824    0.80235500    1.31011500
Se    3.09471000    0.62530000    4.84747000      0.229542    0.12145800   -0.44081800
Se    2.69381000    5.26408000   11.71714000     -1.428969    0.92692300    2.57175300
Se    5.81252000   11.78710000    0.92230000      0.654370   -0.49759000   -0.25224700
Se    4.81092000   12.59380000   10.72806000     -0.047474    0.52019300   -0.10173300
Se    3.84402000   13.01152000    0.52442000     -0.264844    0.57623000    0.53515100
Se    3.26547000   17.17361000   10.93231000     -0.032397   -0.35529100    0.17163200
Se    5.47211000   21.66153000   19.76561000      0.467080    0.28989600   -0.73284100
Se    4.99769000   19.61520000   11.90906000     -0.141707    0.78461300   -0.09276000
Se   11.24319000    6.46732000    2.14616000      0.325242   -0.37605800   -0.01130600
Se    8.08498000    3.20490000   10.68538000      0.145205   -0.64421100    0.05558100
Se   10.22114000   12.69193000   19.05152000      0.687969   -0.15491000   -1.01114500
Se   10.80188000   10.88581000   11.75831000     -1.816812    0.12126400   -1.63995400
Se   11.19654000   16.00599000    2.72510000     -1.182561   -0.05523600    0.44373700
Se   12.25483000   15.37327000   12.91195000     -0.199746    0.01331800    0.23490400
Se   11.22754000    0.11318000   17.69967000     -0.065869    0.76753500    1.03302700
Se    9.79531000    0.16784000   11.33884000      1.497468    0.95777400   -0.35386300
Se   11.82166000    3.95595000   17.11964000      0.423024    0.64100600    0.10631400
Se   17.61987000    8.14491000    9.19512000      1.116338   -0.96528000   -0.23512500
Se   16.44065000    9.50730000    2.47583000      0.769404   -0.14439000   -0.69532800
Se   18.08729000   13.89724000   10.57952000     -0.138833   -0.38628600   -0.69559500
Se   18.84401000   14.37533000    2.06615000     -0.397749    0.26795800   -0.01409500
Se   13.96597000   15.70180000    8.07788000     -1.228475   -0.01787200   -0.52540400
Se   18.04000000   22.25656000    0.78503000      0.492116    1.12204700    0.95941000
Se   17.07441000    0.69353000   11.23488000      0.020648    0.05995900   -0.56384600
Se   23.34929000    3.05341000    0.86575000      0.412742    0.10754800    0.05125900
Se   22.31327000    4.65618000   10.60064000     -0.346884   -0.47105200   -0.06611600
Se   21.37165000    5.60413000    2.15109000     -0.273510    0.47746000   -0.20267700
Se   20.61408000   11.66250000   12.21780000     -0.014539    0.12669700   -0.46314900
Se   22.79634000   14.69870000    3.93971000     -0.207060   -0.58685300   -0.02744600
Se   21.40651000   15.39936000   11.21360000      0.418299    0.32834700   -0.81444300
Se   23.30870000   22.37970000    2.05966000     -0.069639    0.36134200    0.28783200
Se   22.00692000    0.68601000   15.59112000     -1.113862   -0.46287600    0.02997200
Se    3.86582000    4.58092000   10.03919000      1.384761   -0.88208700   -2.14959600
Se    4.40720000    6.36095000   18.27734000      0.906917   -0.22522200   -0.17732100
Se    3.85696000   11.92691000    8.14614000      0.281054    0.09072800   -0.05032200
Se    4.07690000    7.33072000   15.33669000     -0.641861    0.18345600    0.76117000
Se    6.01106000   20.06878000    6.14353000      0.166802   -0.00270800   -0.02885500
Se   22.01476000   15.52813000   19.30674000      0.336112   -0.77838000    0.03837700
Se    0.90761000   21.77481000   10.93161000      0.330786    0.28887900    0.08830500
Se    2.58316000   20.05663000   17.96961000     -0.111462    0.39368300   -0.08633200
Se    7.76021000    3.44199000    7.77038000     -0.146223    0.23701900   -0.14565300
Se    5.61148000    4.47329000    0.12689000      0.333568    0.40956200    0.22339900
Se    7.06075000   10.80767000    6.52826000     -0.161379   -0.37809700   -0.23291900
Se    3.91616000    9.63458000   19.69794000      0.511015   -0.38068000    0.48928900
Se    6.56249000   18.24901000    9.53361000      0.500141   -0.24297400   -0.63669900
Se    6.58489000   15.77797000   17.97029000      0.039242   -0.33363000    0.62682400
Se   10.03049000   20.12964000    8.05944000     -0.911245    0.93358300   -0.22396800
Se    9.28890000    2.87836000    0.22322000     -0.051822   -0.75826700    0.51824400
Se   14.40355000    2.61337000    9.13731000      0.086010   -0.48871200    0.65625800
Se    8.27952000    4.64123000   18.44101000     -0.282090    0.80553000   -0.89889600
Se   10.24063000    5.85333000    8.59869000      0.132307   -0.05045100    0.61140800
Se   17.52268000   12.73189000   16.08712000     -0.415609   -0.80777900    0.33597300
Se   13.41363000   18.94368000    7.56896000      0.811031   -0.22174900   -0.65822600
Se   14.77597000   15.90341000   18.40432000      0.080035    0.40268600   -0.73123900
Se   15.89682000   23.47123000    7.59604000     -0.250344   -1.49345800    0.66730400
Se   18.90093000    1.97071000   16.79602000     -0.141704    1.99391900    0.04240900
Se   17.10203000    3.61644000   11.93949000     -0.066800   -0.24367100   -1.27072400
Se   22.44447000    3.89822000   18.21318000     -0.058508   -0.21200000   -0.20860800
Se   18.40846000    9.49854000   12.97902000      0.064112   -0.57419200   -0.14684400
Se   19.92948000   10.84257000   16.26191000      0.406586   -0.71674400   -0.18514400
Se   15.94404000   18.27436000   10.50980000      0.488113   -0.89723800    0.38037300
Se   19.47650000   13.65478000   18.55986000      0.560429    0.41042700   -0.06684600
Se   18.58449000   23.11114000    7.54911000      0.885258   -0.05375100    0.38417600
Se   18.28136000   19.37365000    0.69168000      0.534051   -0.05337100    1.35341500
Se    4.91040000   22.63417000    8.91196000     -0.042341    0.01893300    0.35180000
Se    3.63386000    3.07187000   19.64909000      0.483929   -0.13216600    0.41642400
Se    6.69196000    6.56304000   10.38290000      1.194259    0.75847700   -0.27668600
Se    4.92488000    7.22922000    0.58348000     -0.381021    0.31508400    0.34208400
Se    5.58389000   16.07174000    7.02744000     -1.197392    0.81081800   -1.23315800
Se    6.46027000   11.90042000   17.43645000      0.007360   -0.06617700   -0.55067700
Se    2.46421000   19.10552000    8.35266000     -0.096320    0.27856100    0.34602500
Se   22.81737000   19.30953000    0.59455000      0.451632   -0.37009900   -0.59505600
Se    9.06271000    0.03829000    7.44201000     -0.288975   -0.22502700   -0.70265600
Se   12.29264000    4.38975000    1.83230000     -0.410907   -0.04258700    0.44845100
Se   11.49256000    2.33822000    9.26286000      0.715697   -0.15020600    1.39777300
Se    8.87410000    6.82460000    0.84104000     -1.368906   -0.10550000    0.34590300
Se   11.31184000   13.88380000    8.26538000     -0.634671   -0.22863400   -0.96465900
Se    8.79102000   14.06169000    0.57790000      0.255534    0.33454300    0.61845600
Se   13.78862000   22.31607000   10.99931000     -0.504965    0.54902800   -0.34477300
Se   14.44237000   13.24670000   16.66609000     -0.954963    0.48363700    0.90183300
Se   17.24285000    3.12574000    8.00094000     -0.085703    0.80680100   -0.00602200
Se   17.50567000    5.14282000    1.80744000      0.628712   -0.33984300   -0.58096200
Se   15.17558000    7.86510000    8.82922000      0.259039    1.70141800   -0.58793900
Se   15.94789000    9.07249000   17.52227000     -0.167831   -0.05725700    0.45539400
Se   14.42320000   13.54467000    8.56763000      1.397047   -1.16375100   -0.20145600
Se   15.94173000   12.56027000   19.43351000      0.411213    0.27649500    0.53060200
Se   14.54458000   19.58728000    3.94738000     -0.747151    0.02128000    0.34227500
Se   19.41242000   21.13627000   18.10768000      1.044790   -0.57172900   -0.58699000
Se   21.63232000    1.57719000    7.40755000     -0.266766   -0.37922600    1.09527200
Se    0.42713000   23.55652000   15.95465000      0.683564   -0.27777500    0.24447800
Se   20.79202000    7.42381000    9.05853000      0.251279   -0.40421200    0.89136800
Se   23.40576000    7.37879000   16.95994000     -0.029878    0.43765700    0.13424100
Se    0.35228000   11.04031000    7.76453000     -0.621499    0.74749500    0.41312400
Se   21.94020000    7.74347000   18.81075000      0.593867    0.64506100    0.06287500
Se   21.05878000   17.32360000    7.68274000      1.833301   -0.36863800    0.10420800
Se   19.25263000   17.55642000   18.24361000      0.197799   -0.57054800    0.29565000
Se    1.13981000   23.02273000    8.86396000     -0.196292    0.65064500    0.56425100
Se    3.44805000    0.06643000   13.12376000     -0.231012   -0.38752400   -1.27563500
Se    2.34901000    8.18087000    8.14142000      0.438339    0.68363000   -0.30629500
Se    2.36539000    8.63258000   18.23838000     -0.601858    0.19646200   -0.67399100
Se    0.62714000   16.23459000    8.38112000     -0.473005    0.24891200    0.44232200
Se    1.09459000   12.88375000   18.13223000     -0.382920    0.19660000    0.22201600
Se    2.81554000   19.43501000    5.69853000      0.278070    0.20017300   -0.21169300
Se   23.15509000   19.17465000   16.50193000     -0.186780    0.51457500   -0.11790300
Se    6.27594000   23.27758000    4.03212000     -0.406742   -0.48107300    0.60020500
Se    6.31843000    0.89506000   17.48399000     -0.196771    0.84044300   -0.15740100
Se   11.21189000    6.85226000    5.11111000     -0.580040   -0.88968400   -0.04867500
Se    6.53362000    7.72644000   15.59473000      0.101485   -0.03056800   -0.02825400
Se    7.49133000   15.02282000    7.74873000      1.450035   -1.15955000    0.48597600
Se    8.01869000   19.18653000   12.92597000      0.988024    0.49312800    0.14033000
Se    8.13622000   16.42478000    3.50044000     -0.258942   -0.65372600   -0.11976700
Se    9.22188000   16.68516000   15.08849000      0.327118   -0.41400900   -0.32310100
Se   14.88167000   21.46194000    5.59520000      0.219899    0.17450900   -0.67793700
Se   13.97317000   22.90196000   15.66831000     -0.148071   -1.05005800    0.13903300
Se   13.06889000    8.71377000    4.20557000      1.112499   -0.08817100    0.30548700
Se    9.65881000    8.16613000   13.58269000     -0.219512    0.09866400   -0.72770800
Se   14.33714000   12.27206000    4.26647000     -1.201340   -1.32098200    0.73725100
Se   15.39066000   15.39772000   14.29671000     -1.563748   -0.16595500    0.37287600
Se   12.26388000   18.87230000    4.37113000      0.530553   -0.53052300   -0.15710400
Se   15.86715000   19.83272000   17.80139000     -0.106076   -0.14855600    0.35243900
Se   18.02095000    1.88918000    4.36923000     -0.264172    0.38627900   -0.19196700
Se   18.93026000    0.68107000   18.69168000     -0.436126    0.42125400    0.67147300
Se   19.80027000    8.16566000    5.59711000     -1.007500    0.94069000   -1.80484200
Se   19.59655000    6.30566000   16.47522000      0.613836   -0.37827500    0.21258600
Se   19.56052000   11.94849000    4.31334000      0.035906   -0.61081300    0.93640400
Se   17.10524000   13.07730000   12.55092000     -0.437941   -0.29995500    0.31061900
Se   19.19612000   18.42948000    4.56138000      0.309736    0.01201300   -0.24773100
Se   20.79528000   20.64661000   14.41512000      1.729089   -1.41484500    0.58308000
Se    5.53634000    6.91665000    6.18717000      0.307675   -0.09599100    0.28549300
Se    2.82273000    2.79828000   16.81281000      0.350655   -0.11191200   -1.32260300
Se    3.01519000    9.37269000    3.84746000      0.634575   -0.01525200   -0.98226500
Se    4.85853000   10.46514000   14.55435000     -0.802509    0.31015100   -0.40718700
Se    5.00570000   14.51699000    4.79257000      0.049252   -0.23136300    0.94634300
Se    2.11551000   16.57182000   18.43303000     -1.377656    0.30631200   -0.07420400
Se    1.21513000   23.16011000    5.71360000      0.113052    0.78853600    0.48306500
Se    3.21833000   19.99851000   13.44790000     -0.000760    0.24135600   -0.06339000
Se   12.56376000    0.91298000    6.47180000      0.455552   -2.11786600   -0.05546500
Se    7.85601000    4.92550000   16.00763000      0.103434   -0.73229600    0.45902500
Se   12.27323000   11.85807000    6.76097000     -0.318596    0.70073900    0.39521200
Se   11.23017000   13.63128000   16.81938000      0.837586   -0.04794200    0.54210800
Se   10.20050000   16.59615000    8.77728000      0.147909    0.46917100    0.74473500
Se   11.29667000   19.87476000   18.84295000     -0.002567    0.57263400    0.45614200
Se    9.90178000   22.43029000    3.94460000     -0.411759    0.09215700   -1.18382100
Se    8.04350000   20.80387000   19.09641000      0.459221   -0.27468000   -0.18023800
Se   15.02516000    5.23579000    5.17878000      0.308770   -0.13269000   -0.36869700
Se   14.18382000    6.04361000   18.77345000      0.141681   -0.34222000    0.51111800
Se   16.41448000   10.37177000    7.19145000      0.443155   -0.24407800   -0.51088600
Se   17.69870000    7.33031000   13.72018000      0.257894    0.22839200   -0.37461200
Se   16.90165000   14.20328000    5.31522000      0.438228   -0.26948300    1.06110000
Se   12.94970000   18.35704000   15.92583000      0.209311    1.25621600    0.05322100
Se   15.28463000   23.45303000    3.89288000      0.434287   -0.40295700    0.78942500
Se   17.69008000    4.02662000   14.08335000      0.224163    0.04758500    1.21585200
Se   22.29096000    5.19662000    6.47605000     -1.042415   -0.04875400   -0.12323400
Se   23.19895000    4.92558000   13.98316000     -0.705494    0.57663600    0.64641400
Se   17.35155000   10.36662000    9.70481000     -0.643989    1.53949100    1.37096500
Se   21.84077000   14.21266000   15.05096000      0.490904   -0.61869600    1.14487700
Se   17.99605000   16.22013000    8.68500000      0.121687    0.34643900   -0.69443000
Se   22.59008000   16.38933000   15.91209000     -0.582849    0.53551500   -1.15294400
Se   21.15855000   23.04896000    8.29169000     -0.471550    0.46141600   -0.24797800
Se   22.78779000   23.05455000   19.12833000      0.262537    0.08731900    0.09138600
Se    4.37104000    3.54203000    7.23403000     -0.057232   -0.61848700   -0.40139800
Se    5.30185000    0.25553000   14.78077000      0.019477   -0.59540100    0.57063400
Se    4.12904000    4.71710000    3.21816000     -0.377358    0.40896600    0.99774600
Se    4.34785000    8.33201000   11.09998000     -0.315715    0.12364100    0.67962900
Se    1.44063000   11.19127000    3.13554000     -0.218688   -0.42681800   -0.40615100
Se    4.47752000   14.34339000   14.92723000      0.503884    0.69632800   -0.46716800
Se    4.45543000   16.92404000    1.78908000      0.736953    0.18525900   -0.06766400
Se    3.57109000   16.90343000   13.26150000     -1.130991   -0.34754400   -0.02413300
Se    9.56701000    0.84942000    2.25159000      0.274210    0.29233100    0.30615500
Se   10.57463000    1.37280000   14.61563000      0.596469    0.08310300   -0.06827700
Se   10.16715000    9.32357000    3.35125000     -0.632916   -0.17595600   -1.14617500
Se    8.51383000    8.95452000   16.93266000      1.488515   -0.09773900   -0.29289400
Se    9.34000000   12.83029000    4.82233000     -0.229754    0.14590000   -0.50020800
Se   12.76979000   11.13191000   12.76495000      0.858360    1.38943900    1.16820600
Se    9.67251000   19.06251000    2.10554000     -0.316858    0.52907800   -0.02302100
Se    8.46741000   22.68966000   15.17486000      0.489123   -0.29143800   -0.24810300
Se   18.41018000    5.18130000    8.64694000     -0.148854   -0.80434500   -0.02684600
Se   14.71007000    1.11268000   16.64167000      0.480247    0.94757800    0.54645500
Se   16.77992000    7.42677000    3.97503000     -0.913117    0.56184500   -0.14047900
Se   12.89213000    7.33616000   14.91375000      0.528130    0.74306100   -0.05041100
Se   17.21771000   12.44204000    1.74107000     -0.405794    0.16328600    0.07121900
Se   18.60011000   18.28022000   14.51546000     -0.380848    0.48342500   -0.05235500
Se   15.43832000   16.94708000    3.54967000     -0.283671   -0.46370800    0.45072300
Se   16.92000000   20.35946000   13.98292000      0.321515    0.24134800    0.23136700
Se   22.59600000    2.01881000    4.09613000      0.168143    0.15169400    0.09555800
Se   22.14109000    0.78602000   12.12455000     -0.652907    0.74294800   -0.50282100
Se   23.61949000    8.45537000    5.11728000      0.098895   -1.94787600   -0.09522900
Se   21.70327000    6.87180000   13.32719000      0.338660    0.35956800   -0.22867400
Se    1.24873000   16.61874000    4.89842000     -0.129408    0.11077300    0.01885900
Se    1.37112000   11.96310000   14.91494000      0.270516    0.49729500   -0.54815200
Se   22.79329000   20.96956000    6.07276000     -0.259157   -0.59246300   -0.31806400
Se   20.13561000   21.38806000   11.04384000      0.099776   -1.22982500   -0.37055300
Se    1.98767000    3.72247000    6.45033000      0.487005    1.28814400    2.29516800
Se    1.49537000    3.20124000   12.74221000     -1.180627    0.95229800   -1.32080100
Se   21.84212000   11.36922000    5.13103000     -0.427274   -0.10653500   -0.23513600
Se    1.60801000    8.11021000   14.25199000     -0.626237    0.24939900   -0.43856400
Se    1.77448000   14.81830000    1.78360000     -0.718949    1.29370600   -0.41312200
Se    1.11664000   16.42510000   13.96504000      1.089610    0.08359800    0.28478100
Se    3.68972000   21.01835000    1.71453000     -0.497280   -1.01731500    0.45424200
Se    5.43653000   17.54024000   17.07705000     -0.302208    0.43801700   -0.12946700
Se   11.32088000    2.58416000    5.58151000     -0.642033    1.59544300   -0.84879700
Se    8.43915000    2.27891000   13.42373000      0.010612    0.13106100    0.16035400
Se    6.09972000    8.11624000    3.06435000      0.215334    1.12644800   -0.02638600
Se    8.85629000   11.08623000   13.41638000     -0.424829   -0.47419300    0.14818100
Se    7.00862000   14.14378000    2.42794000     -0.130915    0.68613500   -0.05803000
Se    9.79061000   15.27432000   13.16479000      0.323369    0.53163800    0.75377300
Se    7.15030000   22.60980000    9.79438000     -0.217266    0.11106500   -0.80816400
Se    6.01489000   20.02268000   15.84287000      0.247213    0.29495500   -0.09585800
Se   13.26869000    0.57243000    3.11807000      0.210404    1.58371600    0.51788100
Se    9.65708000    5.82157000   13.37152000      0.251474   -0.78439500   -0.04214700
Se   13.29288000    9.50630000    1.46473000     -0.209643    0.17261200   -1.00392600
Se   15.67426000   10.69259000   14.04906000     -0.318556   -0.41715200   -0.27794900
Se    9.97554000   16.87885000    5.76776000      0.352963   -0.50069000   -0.13480400
Se   13.99096000   17.20878000   11.86083000      0.489110   -0.54366500   -0.37913900
Se   14.88202000   21.19852000    1.12355000     -0.273634    0.22094500   -0.43595400
Se   15.43260000   22.65687000   13.82254000      0.403510   -0.14879700   -0.02156000
Se   18.60806000    5.85321000   19.37197000     -1.203411   -0.15463300   -0.38268000
Se   14.98393000    5.77508000    9.67193000     -0.434520   -1.29515200    0.86919300
Se   20.23591000    8.23105000    2.43300000      0.063604    0.98164000   -0.59330600
Se    2.44089000   12.34202000   12.68655000     -0.113064   -0.50424700    0.85441700
Se   21.08381000   17.36827000    3.63325000     -0.452220    0.01968600    0.09740600
Se   17.49644000   16.33149000   13.71917000      1.295350   -0.02621000   -0.71064300
Se   19.68640000   22.16443000    3.68479000      0.254056   -0.17915900    0.34993100
Se   18.92112000    0.54742000   14.87433000     -0.378908   -0.69540400   -0.78341000
