384
23.69824000 23.69824000 19.89960000
Ge    5.16268000    6.52445000   13.46036000      0.581710   -0.79218300   -1.97718500
Ge    6.93081000    5.26170000    2.99985000     -0.500874   -0.70139600    0.63121400
Ge    1.96985000   12.81712000    6.73554000     -0.295845    0.08773800    0.30600000
Ge    9.14608000   14.11501000   15.73035000     -0.791745    0.14733800   -0.29225400
Ge    5.46187000   15.35572000   10.04462000     -1.029860   -0.52614200   -0.28772100
Ge    9.49419000   18.46583000   19.39384000     -1.161089   -0.82004400    0.38972400
Ge    7.74180000   22.71577000   12.21715000      0.296458   -0.63225400    0.73655700
Ge    5.12539000    1.14025000    0.02026000      1.024179   -0.51089200    0.31992600
Ge    8.97701000    5.55417000   10.79835000      0.293291   -0.56954800    0.31204600
Ge   10.61946000    6.37805000   19.02497000      0.518953   -0.72639800   -0.21910700
Ge   10.19562000    8.18484000   10.60492000      0.179651   -0.29620500    0.58095200
Ge   13.15851000   11.98730000   19.51752000      0.300310    0.07753300    0.29322400
Ge   11.54491000   18.81979000    9.07758000     -1.349359   -0.69955700    0.60005100
Ge   12.67300000   15.94032000    0.47705000     -0.204079   -0.64032900    0.28305400
Ge   11.00756000   23.29519000    8.92892000      0.908046   -0.17504600    1.73816200
Ge   16.36725000   22.15083000   18.85247000     -0.292464   -0.25864500    0.43174300
Ge   19.25277000    5.52955000   11.73797000     -0.079026   -0.11216900    0.50329100
Ge   19.79441000    8.30908000   17.86930000     -0.119936    0.13222700    0.21366700
Ge   19.56586000   11.88619000    9.77959000      0.031867    0.00360000    0.56496000
Ge   18.42437000   11.54228000   18.40144000     -0.472651    0.81509700    0.06393400
Ge   15.06534000   20.18956000    9.31010000     -0.423381    1.77724000   -0.07649200
Ge   17.76474000   15.10740000   19.63377000     -0.160975    0.49060400    0.47435500
Ge   19.84601000    1.69277000   12.65218000     -0.410266   -0.81695800   -0.64404600
Ge   19.69530000    3.65343000    1.64172000      0.157591    0.00230300   -1.60686500
Ge   22.99577000    6.12484000    8.76374000      1.056284   -0.35090300   -0.53806600
Ge    2.14377000    3.12648000    4.08927000      0.632853    0.57007700    0.25427400
Ge    1.92364000   10.46488000    9.73498000     -0.096568   -0.72310700   -0.18256900
Ge    0.87471000    9.27254000    0.38501000      0.231968    0.95204300   -0.70337400
Ge   20.72984000   14.72859000    8.57332000      0.026708    1.57146100    0.63845600
Ge    0.68752000   14.90917000   19.57776000     -0.163001    0.57308400   -1.22228200
Ge   18.96417000    1.50361000    8.96343000     -0.189226   -0.06904300    0.57876400
Ge    1.24950000   20.82571000    0.22264000     -1.077566    0.45745800    0.92195100
Ge    4.76530000    8.75407000    8.30132000      1.007832   -0.05294300    0.00794100
Ge    1.88647000    5.91879000   19.07894000     -1.132556   -0.21384500   -0.45943400
Ge    1.72779000    9.90508000    6.13105000      0.450442   -0.78935300    0.05678100
Ge    4.27379000   12.30120000   16.36863000     -0.597787   -0.54495200    1.65692100
Ge    6.27983000   18.18332000    3.66821000     -1.305135   -0.42333200   -0.75124500
Ge   23.17765000   17.52112000   18.23297000      0.738824    0.41292600    0.87933300
Ge    4.77390000   19.95539000    9.10069000     -0.486688    0.15347500    0.46639500
Ge    3.28178000   22.36652000   18.06365000      0.995504    0.50879800    0.31461400
Ge    9.97374000    2.24194000    7.53881000     -0.584375    0.37493400   -0.53144900
Ge    6.79885000    8.13605000   18.43047000     -0.492389   -0.04571000    0.35556000
Ge    5.96467000   13.05022000    7.06352000      0.425047    0.02708200   -1.09694300
Ge    8.20389000    8.98442000    2.00385000     -0.466947   -0.51755700   -1.02502000
Ge    7.72372000   18.63365000    7.28444000      1.233716   -0.18159500   -0.37516900
Ge    4.50229000   19.13669000   19.46251000      0.258080    0.30406300    0.60588800
Ge   11.01885000   22.49022000    6.19863000      0.284097   -1.12609400   -0.50320500
Ge   10.20728000    2.39002000   17.82566000     -1.246500    1.67385200    0.68508500
Ge   13.47280000    6.82856000    6.04921000      0.515924    0.18028800    0.17647800
Ge   13.49054000    8.41072000   18.81608000      0.840661   -0.53311600    0.26933000
Ge   15.44286000   12.54268000    6.51488000      0.713689    0.53971500   -1.05961800
Ge   16.69884000   15.51727000   16.49825000      0.426148   -0.66803600   -0.91534600
Ge   12.42735000   16.19274000    4.95375000     -0.345296    1.19953400   -0.53181500
Ge   15.34849000   17.61693000   16.66573000     -1.479570   -0.45952400   -1.13034700
Ge   15.13778000    0.20643000    9.86828000      1.113351    1.36687000   -0.64514700
Ge   16.34013000    4.59163000   18.58524000     -0.023664    0.66720800   -0.52533100
Ge   19.98062000    6.22378000    7.03561000      0.511829    0.18173300   -1.41611800
Ge   22.13070000    5.37182000   16.36390000     -0.117967    0.05225000   -0.41858500
Ge   19.89054000    9.60830000    8.00223000     -0.101153   -0.36595400   -0.14547500
Ge   22.08128000   13.12433000   17.50682000     -0.840936    0.06247800    0.62359700
Ge   18.59879000   18.38555000    7.43895000      2.181075   -1.97386000    0.64945200
Ge   20.59519000   19.31909000   16.70474000      0.489673   -0.23132300   -0.60898000
Ge   19.70840000    0.52330000    5.52625000      0.534935   -0.36180700   -0.80272400
Ge   20.26775000   20.86328000    0.81715000      0.661071    0.39342600   -0.20302800
Ge    5.51614000    2.59924000   10.76297000     -0.536903   -0.78078200    0.93673500
Ge    5.39249000    3.47070000   17.10529000      0.498020   -0.35775800    0.37486800
Ge    3.50552000    6.75236000    4.96266000     -0.053328   -0.74108500   -0.20722400
Ge    2.71848000    9.52749000   12.80709000      1.398313    0.89826800   -1.20978900
Ge    2.68714000   16.82624000    7.19852000      1.537472    0.38226600   -1.29737700
Ge    0.63186000   14.31875000   15.90701000      1.611483    0.06486900   -0.92657800
Ge   22.95294000   20.19621000   10.41833000     -1.385975   -0.27051100   -1.27845800
Ge    3.27265000   22.39465000   15.25802000      0.248798    0.17502700   -0.87535500
Ge   10.03482000    3.49020000    2.94691000     -0.312682   -0.98831500   -0.34986200
Ge    8.18125000    2.43695000   16.10181000      0.365019   -1.11723500   -0.24433000
Ge    9.18638000   10.32979000    5.44820000     -1.106372    1.16484200   -0.31130400
Ge    7.24811000   10.50784000   15.54668000     -0.028803    0.52551700   -0.04693200
Ge    9.85733000   14.57866000    6.54802000     -1.757796    0.02652500   -2.27617800
Ge   15.49993000   11.17718000   16.19982000      0.555970    0.35785400    0.21603700
Ge    7.56973000   21.17214000    4.34931000      0.269438    0.60578800   -0.91004200
Ge    8.43488000   20.20667000   15.49993000      1.486355   -0.58114700    0.43702300
Ge   14.97849000    1.77396000    6.73420000      0.186179    0.36643900   -0.72591000
Ge   12.87940000    2.27744000   15.48056000     -0.089651    0.75077400    0.36422600
Ge   15.70668000    9.80794000    4.78508000     -1.196691   -0.82002900   -1.38901000
Ge   15.62965000    7.73562000   15.19516000     -0.095525   -0.30531900   -0.01867400
Ge   15.27292000   14.44926000    3.57021000      0.781870   -0.86764900   -0.15879800
Ge   12.71604000   16.13024000   15.35345000      0.145074   -0.93083200    0.31146700
Ge   14.28719000   19.14273000   19.58482000     -0.357399    0.18270000   -0.66243800
Ge   10.13739000   21.46413000    0.89656000     -0.645552   -1.01153700   -0.18442000
Ge   23.04397000    4.60641000    3.69296000      0.487621   -0.31152500    0.51485800
Ge    0.32561000    2.35437000   16.28028000     -0.272935   -0.04941900   -0.16828900
Ge   21.71472000    9.22791000    6.31190000      0.538151    0.24883400    0.02644800
Ge   20.86088000    9.52802000   13.90697000     -0.363158    0.36372300    0.22856900
Ge   22.86605000   16.13020000    6.27741000     -1.024554   -0.31806100   -0.58273900
Ge   19.61570000   13.91888000   12.54800000     -0.518192    1.05165000    0.77565900
Ge   20.29660000   20.60743000    5.60667000     -0.672948    0.25910000   -0.09847000
Ge   20.84662000   23.10660000   17.79556000      0.030015    0.24041600   -0.74359700
Ge    6.26276000    4.23512000    5.91167000     -0.099113    0.61857300   -0.71227300
Ge    3.37233000    2.52631000   13.76914000     -0.529576    0.51264800    1.40164600
Ge    5.35805000   10.59424000    3.18863000     -0.326267   -0.23010900    1.15503300
Ge    7.25506000    9.01333000   12.31040000      0.368015    0.00944100    0.70068000
Ge    5.61215000   15.14864000    0.64096000     -0.721885    0.58574900   -0.34654800
Ge    5.08349000   12.58284000   13.44291000     -0.133001    1.51731200   -2.11683300
Ge    4.75281000   22.42982000    5.78081000     -0.187722    0.38140900    0.12831500
Ge    6.01691000   21.52434000   13.77889000      0.052750   -0.20074300   -0.34583400
Ge   15.20600000    5.89479000    2.65443000     -0.636552    0.20624000    0.37296000
Ge   13.45927000    0.42138000   12.80163000      0.052457   -0.90947000    0.50028300
Ge   11.05950000   10.01869000    0.27595000     -0.387163    0.12507500   -0.38638700
Ge   13.98221000    9.08084000   12.85934000     -0.491050   -0.19941200   -0.38963900
Ge   10.50272000   13.39615000    2.49451000      0.604662   -0.05432100   -0.65741600
Ge    8.44402000   16.83323000   10.90268000      1.271686    1.60391200   -0.07057000
Ge   12.55034000   22.40368000    1.44421000      0.213392    0.62908400    0.53354600
Ge   11.00558000   22.33082000   14.16691000     -1.077274    0.54884100   -0.38110400
Ge    1.16178000    1.90849000   18.99026000     -0.253069   -0.80019600   -0.14221900
Ge   12.66513000    5.86622000   12.82647000     -0.829435    0.82871400   -0.12348100
Ge   17.21116000    7.94645000   19.89845000      0.633934    0.32867000   -0.12696600
Ge   12.65477000    6.48740000    8.54473000      0.162247   -0.49449700   -0.04964400
Ge   21.08861000   13.10533000    2.93154000      0.007939    0.95709300   -1.08464600
Ge   15.55468000   17.67028000    8.31515000      0.835265   -2.10003900   -0.73535800
Ge   17.16645000   21.49628000    2.84449000     -0.762700   -1.65229100    2.59925900
Ge   18.89986000   21.80474000   13.68801000      0.575293   -0.05252800   -0.67015500
Ge    0.69996000    1.45638000    2.53966000     -0.644455   -0.84542400   -0.09056400
Ge   22.19271000    2.17361000    9.95805000      1.554052    0.05421400   -0.22008900
Ge   22.68502000    9.71580000    3.12781000     -0.271868    0.32622700   -0.76996300
Ge   23.43633000    9.04466000   12.78614000     -1.071309   -0.18671400    0.25969500
Ge    2.78933000   13.27829000    3.22229000      0.625420    0.32471600   -0.45004700
Ge    0.47201000   16.52590000   11.35236000     -0.132677    0.37119600    0.01388500
Ge    0.44957000   21.51366000    4.26277000     -0.051993   -0.18522200   -0.94084900
Ge   20.64890000   17.72821000   12.29278000      0.587231    0.32762000   -0.95049600
Se    2.95121000   23.62724000    0.45180000     -0.936453    0.04640300   -0.72817000
Se    1.24883000    1.68494000    9.40497000     -0.897772    0.16367600    0.55641400
Se    0.79347000    7.07343000    1.04690000      0.077630   -1.13302100    1.29896300
Se   23.24328000    9.79771000   10.50351000      0.210332   -0.20688300    0.19967100
Se   22.27566000   11.67573000    1.35979000     -0.382527    0.43740700    0.03393800
Se    0.85052000   13.97567000    8.81609000     -0.132228   -0.64197600   -0.03121000
Se    1.95531000   19.54068000    3.50224000      0.063078    0.77127600   -0.45914000
Se   23.30564000   18.85677000   12.38752000     -0.200311   -0.60891400    0.26124600
Se    6.82670000    2.93955000    2.28239000      0.278405    0.07223200   -0.35278400
Se    5.50232000    3.53576000   13.33969000      0.018788   -0.13564600   -0.34755500
Se    9.47200000    4.93535000    5.02010000      0.186775    0.16702900   -0.17220500
Se    7.81702000    8.83916000    9.82286000     -0.312891   -0.23071000   -0.20989000
Se    8.37172000   10.56599000    0.17534000     -0.320739   -0.48610700    0.21053500
Se    7.45331000   14.78511000   11.23909000     -0.293951   -1.24738900    0.61666700
Se    7.17253000   19.88417000    1.94165000      0.804266   -0.05561700    1.13231500
Se    9.71472000   20.80285000   12.20240000     -0.666018   -0.05815900    0.03935100
Se   12.45803000    0.60754000   19.73881000      0.375329    0.40070900    0.13875300
Se   12.71274000    2.58776000   12.04962000     -0.731691    0.42290200   -1.35448300
Se   10.98449000    8.58151000   17.78326000      0.491654    0.49483400    0.46193800
Se   11.08652000    9.93924000    6.81555000     -0.185779   -1.05328100    0.88159500
Se   13.33097000   13.57268000    1.60330000     -0.487899    0.11262600   -0.64619300
Se   12.30658000    8.69828000    9.37606000      0.516258    0.50112400    0.32485500
Se   14.96199000   16.84982000    1.17650000      0.233307    0.30274200   -0.80321800
Se   12.36792000   19.03643000   11.38768000     -0.356248    0.37893300    0.16491000
Se   20.17198000    3.13548000    3.91001000     -0.801139    0.36664600    1.52622600
Se   13.93665000    3.86536000   13.52238000      0.747965    0.03606700    1.35923200
Se   16.21736000    5.51364000   16.12932000     -0.026338   -0.71896500    0.45515900
Se   20.14465000    3.84836000   13.79819000      0.645131    0.88962800   -0.06829200
Se   19.68182000    9.72300000    0.75005000     -0.710295   -0.22068100   -0.62927900
Se   16.66836000   19.62697000    7.11979000     -1.505476    0.99036000   -0.08005700
Se   19.73305000   17.52549000    0.96032000     -0.247506   -0.09840400   -0.70561100
Se   19.87376000   19.06739000    9.88601000     -0.062193    0.32632600    0.99786500
Se    3.07865000    0.57725000    4.76403000      1.357906    0.61517200   -0.99052800
Se    2.74296000    5.24668000   11.85545000     -0.150388   -0.00347200    0.12844600
Se    5.79163000   11.75761000    0.97635000      0.401177   -0.33873400   -0.75224000
Se    4.79612000   12.69584000   10.73218000      0.160923    0.36603400    0.16025500
Se    3.86198000   13.05920000    0.51364000     -0.260092    0.54557600    0.69564900
Se    3.10306000   17.16276000   10.91919000      0.519656    0.11543000    0.25038600
Se    5.57839000   21.78912000   19.60829000     -0.076837   -0.69751300   -0.39133300
Se    5.07144000   19.75400000   11.90180000     -0.350888    0.32122700   -0.04922600
Se   11.15977000    6.41550000    2.10717000     -0.119417    0.51561900   -0.02951600
Se    7.83657000    3.11021000   10.85148000      1.590792    0.61919700   -0.10706900
Se   10.28450000   12.64689000   18.90384000      0.403408    0.00090900   -0.40615300
Se   10.68507000   10.98953000   11.80283000      0.212980    0.07455700   -0.94332900
Se   11.15755000   15.87006000    2.68002000      0.124720    0.33578600    0.18806300
Se   12.24471000   15.52519000   12.97734000      0.278544   -0.23203700   -0.42749800
Se   11.09305000    0.30836000   17.82375000      0.633158   -2.36637600   -0.15723000
Se    9.79010000   23.67499000   11.45505000      1.290123    0.55472800   -0.60160200
Se   11.82766000    3.92931000   17.07449000      0.621613    0.52249300   -0.09300600
Se   17.63586000    8.12904000    9.08378000      1.351332   -0.07473500    0.28384200
Se   16.50105000    9.69523000    2.35959000      0.378903   -0.22474800    0.38669700
Se   18.08709000   14.06881000   10.51886000     -0.395281   -1.22714300    0.34411400
Se   18.85893000   14.58405000    2.00547000     -0.239275   -0.27244400    0.30907300
Se   13.95046000   15.77876000    7.96562000     -0.015720   -0.47889800    0.04664500
Se   17.96976000   22.36858000    0.95647000      0.973541    2.13274200   -2.89715700
Se   17.08276000    0.72930000   11.25095000     -0.087708    0.16198800   -0.86212700
Se   23.49396000    2.98621000    0.78409000      0.312108   -0.03201300    0.59418300
Se   22.45230000    4.56480000   10.65129000     -0.632303   -0.59123000   -0.30574600
Se   21.41898000    5.45703000    2.12914000     -0.131243    0.22105900   -0.11148100
Se   20.49517000   11.71725000   12.26534000      0.618257   -0.98239800   -0.85154800
Se   22.84228000   14.60448000    3.92995000     -0.453601   -0.15107000    0.32502000
Se   21.58464000   15.37403000   11.04811000     -0.385222    0.06637000   -0.50347200
Se   23.37756000   22.58562000    2.17271000      0.228212   -0.12112600    0.33176400
Se   21.88157000    0.62400000   15.54406000     -0.267909   -0.56293400    0.17388200
Se    4.09485000    4.39428000    9.96254000     -0.956205    0.99521500    0.00990600
Se    4.24859000    6.32308000   18.39360000      1.277438   -0.35798200   -0.54946100
Se    3.94693000   12.00006000    8.10584000     -0.369238   -0.40710100    0.39663400
Se    4.10975000    7.25753000   15.31975000     -0.650859    0.45223300    1.18706900
Se    6.07735000   20.10893000    5.99795000     -0.371264   -0.56271600    0.73341600
Se   21.92335000   15.43056000   19.33898000      0.810697   -0.37174700   -0.49817200
Se    0.92511000   21.70649000   10.88279000      1.355427    1.14443300    0.70162000
Se    2.51994000   20.03687000   18.11470000     -0.201189   -0.33474300   -0.95013100
Se    7.74167000    3.31079000    7.70444000     -0.251746    0.10760600    0.36788100
Se    5.61196000    4.42822000    0.03600000      0.523748    0.59801100   -0.20061700
Se    6.91906000   10.59165000    6.41959000      0.231007   -0.26717700   -0.32941600
Se    3.96817000    9.52904000   19.60071000      0.445311   -0.16855900    0.44124000
Se    6.65563000   18.26101000    9.42065000     -0.081182   -0.14767300    0.79003200
Se    6.53458000   15.69473000   17.97485000     -0.147463   -0.22712300    0.69585900
Se    9.91757000   20.35022000    8.19982000     -0.043230    0.11157100    0.01232300
Se    9.23951000    2.99848000    0.37204000      0.280709   -0.46717700   -0.58909700
Se   14.42935000    2.59552000    9.02470000      0.002480   -0.62041200    0.89065600
Se    8.30866000    4.66594000   18.39290000     -0.245134    0.49467400   -0.33387800
Se   10.21531000    5.82316000    8.57580000      0.059166   -0.27209500    0.11497400
Se   17.59026000   12.63425000   16.00418000     -0.018067   -0.97084400    0.75230700
Se   13.40077000   18.98180000    7.67542000      0.607038    0.09356100   -0.77325400
Se   14.81089000   15.85405000   18.28904000     -0.465197    0.00129100    0.30150900
Se   15.86922000   23.27032000    7.51584000     -0.583374   -0.05648700    0.64342700
Se   18.95727000    2.13493000   16.85878000     -0.168619    1.49769900   -1.11164800
Se   17.13909000    3.63944000   11.73659000      0.524107   -0.02645600    0.27830600
Se   22.59170000    3.94759000   18.20880000     -0.021759   -0.48393400   -0.52113700
Se   18.48271000    9.63709000   13.13822000      0.320993   -1.53002500   -0.16227800
Se   19.78350000   10.81414000   16.41419000      0.425152   -0.36568200   -0.43547600
Se   15.96314000   18.29970000   10.58995000      0.667468   -0.02753400    1.17938200
Se   19.47414000   13.92080000   18.48575000      0.342942   -0.78345400   -0.65048700
Se   18.61153000   23.09277000    7.43662000     -0.067167   -0.19345000    1.03895100
Se   18.20839000   19.50674000    0.76605000     -0.124178   -0.69944300    1.17212800
Se    4.84960000   22.47338000    9.04038000     -0.069917    0.10897800   -0.02924700
Se    3.64468000    3.09823000   19.78446000     -0.822558    0.07898800    0.59054500
Se    6.77655000    6.56024000   10.36690000      0.302124    0.97596300   -0.34501600
Se    5.11705000    7.12545000    0.64644000     -0.699862    0.64117800    0.18589400
Se    5.58607000   16.05845000    7.01452000     -0.508810   -0.15202300   -1.13799800
Se    6.52382000   11.84643000   17.48891000      0.007472    0.14875200   -0.26183900
Se    2.47813000   19.10031000    8.28667000     -0.076865    0.18815000    0.56914500
Se   22.73041000   19.37033000    0.49317000      0.368414   -0.57335500   -0.42262600
Se    9.11789000   23.54379000    7.44609000     -1.003879    0.79979400   -0.53815700
Se   12.16628000    4.37431000    1.93693000      0.399303   -0.58221900    0.03648800
Se   11.50525000    2.37330000    9.38192000     -0.263591   -0.37613200   -0.09861500
Se    8.79806000    6.71658000    0.80487000     -0.688988    0.49907800    0.18037300
Se   11.21494000   14.00884000    8.18936000      1.124214   -1.09627700    1.20012800
Se    8.73505000   14.05750000    0.58145000      0.490311   -0.13962900    0.12155400
Se   13.72187000   22.39570000   10.89204000     -0.862671   -0.24355700   -0.26448500
Se   14.55584000   13.30355000   16.70240000     -0.322594   -0.53923200    0.55161100
Se   17.37934000    3.32231000    7.89126000     -0.243446   -0.83882400   -0.16721800
Se   17.52431000    5.03715000    1.87384000      0.303454   -0.21834900   -0.38626600
Se   15.32914000    7.93178000    8.85843000     -0.911542   -0.10011300   -0.11455800
Se   15.91849000    8.99923000   17.49928000     -0.240033    0.33248700    0.20684100
Se   14.38359000   13.45575000    8.52498000      0.644126    0.76037400   -0.09352500
Se   15.80651000   12.46205000   19.54662000      0.959163    0.32550300    0.20820400
Se   14.43207000   19.75803000    3.94340000      0.130914   -0.48865700   -0.36695100
Se   19.46980000   21.04445000   18.00536000      0.428643    0.52137800    0.26077900
Se   21.69448000    1.47485000    7.38307000     -0.514231   -0.43670700    0.69494500
Se    0.39567000   23.50160000   15.92044000      0.343071    0.32530700    0.18999300
Se   20.85366000    7.35462000    8.97103000     -0.611043    0.84628500    1.28564200
Se   23.27707000    7.44137000   16.90222000     -0.218747    0.36935200    0.52853200
Se    0.26301000   10.89173000    7.80487000     -0.569311    1.18412600    0.57067500
Se   21.99704000    7.76596000   18.96028000      0.387688    0.47863100   -0.71059800
Se   21.07403000   17.41991000    7.70581000      0.733710   -0.84367100    0.05881000
Se   19.19136000   17.67956000   18.35910000      0.172702   -0.48252400   -0.06993500
Se    1.14959000   23.17216000    8.85930000     -0.266654   -0.60374700    0.00282100
Se    3.53216000    0.24436000   12.98363000     -0.109306   -0.50485200   -0.16622600
Se    2.47860000    8.18295000    8.18409000     -0.949740    0.29428400   -0.31048100
Se    2.35225000    8.65321000   18.12212000     -0.332651   -0.03366400   -0.03870500
Se    0.67675000   16.24474000    8.30470000     -1.109638   -0.04869500    1.63476400
Se    1.04508000   13.01575000   18.13721000     -0.075229   -0.44048100    0.14045100
Se    2.93830000   19.48103000    5.73853000      0.346399    0.34361300   -0.25111100
Se   23.15464000   19.29637000   16.52746000     -0.513376   -0.24399400    0.24322700
Se    6.44440000   23.31597000    4.24316000     -0.361380   -0.22547400    0.06125500
Se    6.30687000    0.85570000   17.57467000     -0.086428    0.86133200   -0.36944400
Se   11.32449000    6.68135000    5.02057000     -1.091753   -0.34530300   -0.26896700
Se    6.73655000    7.66597000   15.51995000     -0.599587    0.34576600    0.31007300
Se    7.76028000   15.09673000    7.63877000     -0.333147   -0.42738400    0.88724300
Se    8.16085000   19.10424000   13.12347000      0.577533    0.14318400   -0.31849100
Se    8.02591000   16.49347000    3.44729000      0.343046   -0.81870600   -0.19793600
Se    9.28846000   16.62864000   15.06534000      0.186982   -0.50037100   -0.16084700
Se   14.82303000   21.34707000    5.58650000      0.059989    1.00953400   -0.27392300
Se   13.95579000   23.03409000   15.55931000     -0.536594   -1.51583800    0.97816500
Se   13.22927000    8.62295000    4.08862000      0.775100    0.00800000    0.50779700
Se    9.62698000    8.13305000   13.44048000     -0.387804   -0.11655200   -0.17243800
Se   14.31020000   12.28958000    4.27442000     -0.796447   -0.76594600    0.89783700
Se   15.26206000   15.35923000   14.15791000     -0.471146    0.23754700    0.94540600
Se   12.29144000   18.99477000    4.39157000     -0.538171   -0.95380100   -0.01943400
Se   15.83028000   19.65816000   17.48778000      0.503696    2.22710700    1.66587700
Se   18.10221000    1.93836000    4.33431000     -0.370271   -0.20501100   -0.05058900
Se   19.01213000    0.79489000   18.63580000     -0.135686   -0.65135400    0.99177600
Se   19.67089000    8.27422000    5.36086000     -0.312856   -0.31112900    0.04606500
Se   19.66267000    6.11524000   16.61002000      0.245694   -0.04446400    0.18061600
Se   19.46743000   11.90194000    4.28040000      0.334280   -0.00555800    0.19936400
Se   17.08783000   12.96281000   12.53675000      0.215932    0.42335000   -0.60549000
Se   19.27897000   18.46552000    4.48413000      0.080218    0.28836000    0.21533900
Se   20.93153000   20.62988000   14.56537000     -0.550682   -0.34080800   -0.02070200
Se    5.55526000    6.98458000    6.22436000      0.050730   -0.40363000    0.18808400
Se    2.98644000    2.97609000   16.91065000     -0.519515   -0.30945500   -1.56599900
Se    3.07124000    9.29203000    3.83292000      0.600923   -0.07668200   -0.59693400
Se    4.83209000   10.61004000   14.59980000     -0.268496   -2.13139200    0.22653900
Se    5.00223000   14.55016000    4.87038000     -0.168904   -0.15410100    1.10854500
Se    1.99009000   16.87428000   18.46033000     -1.544554   -0.67629400    0.22697400
Se    1.29645000   23.28206000    5.69481000     -1.145414   -0.20368900    0.77902600
Se    3.18712000   20.06250000   13.31657000      0.118633    0.39980400    0.03192800
Se   12.57408000    0.84927000    6.50197000      0.670155   -1.13727400    0.03930500
Se    7.74298000    4.77852000   15.91613000     -0.186937    0.70162700    0.33969600
Se   12.27088000   11.82267000    6.80529000      0.001797    1.24667100    0.06478200
Se   11.23194000   13.87931000   16.87172000      0.766128    0.34437800    0.41040800
Se   10.22694000   16.65141000    8.82069000      0.029095    0.57411400    0.65714600
Se   11.19853000   19.91202000   18.80149000      0.991804    1.29569400   -0.10646800
Se    9.73043000   22.37261000    3.88276000      0.993575    0.22052600   -0.48320200
Se    8.13049000   20.76947000   18.99023000      0.187915    0.16638400   -0.07173500
Se   15.07511000    5.23440000    5.26116000      0.447927   -0.18390100   -0.28259800
Se   14.10604000    5.93906000   18.94572000      0.171220    0.58310400    0.46461900
Se   16.34245000   10.28044000    7.09056000      0.308050    0.90331700   -0.05115100
Se   17.80228000    7.15620000   13.64191000      0.617840    1.06732200   -0.53408800
Se   16.97007000   14.18411000    5.26578000      0.119507   -0.17612500    1.03592600
Se   12.91813000   18.39759000   15.92916000      0.653540    0.06273300   -0.01875200
Se   15.30443000   23.53106000    3.93310000     -0.514956   -0.06879900    0.30705800
Se   17.78264000    3.98047000   14.04435000     -0.985375   -0.08536700   -0.18556100
Se   22.19624000    5.30905000    6.33542000     -0.195116   -0.47198300    0.25650000
Se   23.24396000    5.00387000   13.84282000     -0.588697    0.41499300    1.07846500
Se   17.41962000   10.41574000    9.85180000     -0.148960    0.62317100    0.76049600
Se   21.96362000   14.22857000   15.09118000     -0.533965   -0.74967800    0.30424000
Se   17.87577000   16.20436000    8.75981000      0.325910    0.87655800   -1.05032800
Se   22.64335000   16.45143000   15.72801000     -0.784893    1.21306900    0.10675500
Se   21.04592000   22.96198000    8.21678000      0.171415    0.65643900    0.09354100
Se   22.74208000   23.13923000   19.05131000      0.920441   -0.13036700    0.73946700
Se    4.31422000    3.45882000    7.29333000      0.165267   -0.77385600   -0.17890900
Se    5.41126000    0.26610000   14.65674000     -0.583529   -0.69025000    0.61547800
Se    4.00271000    4.73317000    3.14592000     -0.226727    0.37077600    0.90719600
Se    4.32783000    8.36326000   11.07941000     -0.385072    0.06434600    0.76268100
Se    1.54463000   11.15043000    3.32403000     -0.612979   -0.05048200   -0.36569200
Se    4.41325000   14.26095000   14.99133000      0.528581    1.14171700   -0.07510800
Se    4.52223000   17.07170000    1.80594000      0.677378   -0.09730700   -0.21840000
Se    3.46508000   16.87033000   13.30530000     -0.578750   -0.04807100   -0.62009400
Se    9.75474000    0.64228000    2.24123000     -0.004451    0.18433300    0.40816100
Se   10.59184000    1.52058000   14.70984000      0.288217   -0.53057300   -0.42638600
Se   10.04210000    9.21767000    3.39567000      0.176217    0.29373300    0.23579200
Se    8.57218000    8.92020000   16.92714000      1.403517   -0.28347100   -0.34407400
Se    9.24379000   12.86148000    4.77587000      0.112510    0.45601900    0.26090900
Se   12.87336000   11.31665000   12.79776000     -0.355531   -0.48559400    0.15747200
Se    9.70442000   18.87895000    2.18504000     -0.761234    1.17672000   -0.39719900
Se    8.65954000   22.69691000   15.23108000      0.454396   -0.21393800   -0.31158900
Se   18.51971000    5.15695000    8.67280000      0.038716    0.04009500    0.64241700
Se   14.70247000    1.14396000   16.71291000      0.716474    0.83623400    0.70782600
Se   16.72340000    7.47070000    3.88896000     -0.116984    1.01948000    0.28319100
Se   12.83316000    7.44372000   14.76657000      0.579611    0.20032800   -0.27925600
Se   17.27780000   12.32833000    1.75166000     -0.388635    0.31096400   -0.12092500
Se   18.76477000   18.30323000   14.40409000     -0.057468    0.67456300    0.21081900
Se   15.52078000   16.87384000    3.44410000     -0.162430    0.27169400    0.95195200
Se   16.89884000   20.40712000   13.88558000      0.070800    0.21927400    0.41102700
Se   22.37758000    2.04706000    4.09988000      0.836497   -0.01421300    0.00796300
Se   22.13955000    0.83886000   12.04737000     -0.075377    0.33892900   -0.20063200
Se   23.60932000    8.27215000    5.13896000      0.427889   -0.44673900    0.42171800
Se   21.82112000    6.92394000   13.21292000     -0.219032    0.47157400   -0.33598300
Se    1.09489000   16.84701000    5.11537000      0.545148    0.23876600   -0.30943700
Se    1.34002000   11.97083000   14.82448000      0.233167   -0.03560100   -0.14265500
Se   22.70596000   20.95912000    6.11608000      0.034425   -0.39857800   -0.47965300
Se   19.98878000   21.25517000   11.23950000      0.040308   -0.38081200   -0.36858800
Se    2.04011000    3.69184000    6.54793000      0.316213    0.72959100   -0.12305600
Se    1.31852000    3.31949000   12.66851000      0.815945    0.30026900   -0.51553600
Se   21.75069000   11.40749000    4.98132000      0.090183   -0.60714500    0.29854600
Se    1.57407000    7.95691000   14.06555000     -0.361892   -0.66538700    0.55206800
Se    1.63405000   14.98265000    1.74155000      0.314251    0.29883800    1.22404600
Se    1.16018000   16.48456000   13.86246000      0.657519   -0.38204500    0.65078900
Se    3.58896000   20.88409000    1.63442000     -0.208152   -0.82224600    0.49314400
Se    5.55870000   17.62634000   17.19478000     -0.232169    0.04648400    0.12368900
Se   11.38618000    2.56506000    5.51481000     -0.828440    1.08881300    0.04164200
Se    8.44240000    2.28727000   13.45553000     -0.229796    0.01689900    0.22754300
Se    6.06884000    8.13605000    2.88017000      0.413156    0.92580700    0.42218100
Se    9.00388000   10.97891000   13.54870000     -0.583492    0.02817200   -0.06207100
Se    6.98727000   14.03257000    2.38178000      0.136469    0.60798700    0.60779100
Se    9.84601000   15.33086000   13.11417000     -0.055155    0.49879600    0.39824300
Se    7.06384000   22.73921000    9.93299000     -0.143507    0.11076500   -1.09863100
Se    6.10028000   20.10998000   15.73403000     -1.536354   -0.09860800    0.81511200
Se   13.19876000    0.69871000    3.19931000      0.549464   -1.03386500   -0.80577000
Se    9.50421000    5.75746000   13.49107000      0.436764   -0.42081800   -0.63004300
Se   13.29783000    9.47697000    1.48991000      0.092889    0.19330700   -0.70798300
Se   15.53872000   10.79949000   13.87436000      0.083681   -0.22073900   -0.47639100
Se    9.97560000   16.84404000    5.75719000      0.749915    0.09730600   -0.44887200
Se   13.98125000   17.34470000   11.76448000     -0.452023   -0.15478100   -0.08638200
Se   14.89760000   21.23356000    1.06266000     -0.296576    0.25846400   -0.76486400
Se   15.36817000   22.51929000   13.80537000      0.693771   -0.17632700   -0.68317600
Se   18.70258000    5.77039000   19.46146000     -0.816665    0.02478500   -0.48237800
Se   15.03780000    5.75131000    9.77634000     -0.908996    0.14566400   -0.00549000
Se   20.34806000    8.28840000    2.40642000      0.371722   -0.01842900    0.53052200
Se    2.64864000   12.38601000   12.79638000     -1.155505   -0.06337800   -0.04447500
Se   21.15751000   17.46925000    3.59544000     -0.165888   -0.14610700    0.03758600
Se   17.52180000   16.42706000   13.77927000      0.395336   -0.72643600   -0.40469200
Se   19.69042000   22.14042000    3.59465000      0.337197   -0.05538200    0.84088100
Se   18.93383000    0.54263000   14.81013000     -0.301874   -0.41771700   -0.13895000
