384
23.69824000 23.69824000 19.89960000
Ge    5.22715000    6.33389000   13.33914000     -0.630403    0.12519000    0.13312700
Ge    6.97548000    5.18138000    3.04476000     -0.542546   -0.99765800    0.16018200
Ge    2.05531000   12.81452000    6.80091000     -0.556732    0.22011600    0.15082500
Ge    9.04769000   13.99711000   15.65480000      0.727608    0.38737300    0.31356200
Ge    5.44608000   15.28899000   10.02300000     -0.021415   -0.46010800    0.39115300
Ge    9.32378000   18.56115000   19.40762000      0.071367   -0.71390200    0.30749000
Ge    7.47732000   22.78415000   12.39986000      1.992406    0.65294300   -0.93277400
Ge    5.08652000    1.22438000   19.83895000      0.309864   -0.95244000    0.98959300
Ge    8.93344000    5.64081000   10.78634000      1.264236   -1.59982700    0.46007000
Ge   10.67045000    6.33838000   18.84707000      0.161746   -0.67617500    0.53983800
Ge   10.12068000    7.98068000   10.90146000      0.483592    0.68156000   -0.93415900
Ge   13.16440000   11.81608000   19.60229000     -0.027295   -0.22180100   -0.55899900
Ge   11.32107000   18.76080000    9.20450000      0.905094    1.72688900   -0.15348600
Ge   12.75963000   15.89867000    0.21037000     -0.010814   -0.54341300    0.72280100
Ge   11.20475000   23.29390000    9.05284000     -0.310767    0.29572500    0.90197900
Ge   16.18786000   22.21194000   18.88401000      0.495083    0.03553500   -0.03731000
Ge   19.32933000    5.64621000   11.76351000     -0.178570   -0.37270100    0.36746900
Ge   19.77104000    8.23121000   18.03316000      0.014291    0.01450000    0.11019100
Ge   19.56729000   11.91633000    9.78587000     -0.271618   -0.20881700    0.36734400
Ge   18.40295000   11.67938000   18.48281000     -0.110229    0.78615900    0.07272500
Ge   15.02594000   20.48005000    9.39847000      0.008898   -0.12392000   -0.46553600
Ge   17.70781000   15.12548000   19.70966000      0.178919    0.16425000    0.09313600
Ge   19.89536000    1.52298000   12.57526000     -1.281100    0.02339300   -0.44205100
Ge   19.41688000    3.58077000    1.75352000      2.097931   -0.92216800   -1.34594200
Ge   23.01303000    6.03010000    8.81582000      0.607142   -0.01727100   -0.63967700
Ge    2.20135000    3.19991000    3.88195000     -0.185912   -0.20795900    1.12224500
Ge    1.86540000   10.37468000    9.72900000      0.174673   -0.21088700   -0.18499400
Ge    0.93324000    9.18495000    0.38002000      0.241971    1.13755800   -0.82431400
Ge   20.55590000   14.73417000    8.68896000      0.274988    1.19919500    0.24755100
Ge    0.62173000   14.96447000   19.49647000      0.367963    0.88944700    0.47659900
Ge   19.05298000    1.51764000    8.98611000     -0.710934    0.21117400    0.27544800
Ge    1.27566000   20.70990000    0.33387000     -0.858387    0.71317600    0.34865100
Ge    4.76990000    8.87735000    8.31291000      1.043817    0.01454300    0.00182100
Ge    1.74944000    5.72606000   19.11053000     -0.484382   -0.16214400   -0.46003800
Ge    1.82976000    9.90326000    6.28513000     -0.329051   -0.63757900   -0.38744100
Ge    4.42608000   12.10513000   16.56862000     -1.480902    0.88571700    0.41821600
Ge    6.10298000   18.17040000    3.53341000      0.056497   -0.07475400    0.23828900
Ge   23.23190000   17.65359000   18.40516000     -1.922013    0.74545500   -0.13276200
Ge    4.71905000   19.84310000    9.13856000      0.042318    0.23589200    0.84547500
Ge    3.24442000   22.18355000   18.00001000      1.211968    1.27331500    0.82215900
Ge    9.86499000    2.22039000    7.44344000      0.550101   -0.35336500    0.03152300
Ge    6.79230000    8.09591000   18.42969000     -0.047725   -0.02500800   -0.00952500
Ge    6.07101000   13.05920000    7.02987000      0.303164   -0.25399900   -0.74552900
Ge    8.22727000    9.01167000    1.94114000     -0.112539   -0.76816300   -1.01323500
Ge    7.84819000   18.75726000    7.44696000      1.639928    0.25506100   -1.58880400
Ge    4.52984000   19.03889000   19.63030000      0.226504    0.43068900   -0.07419800
Ge   11.01684000   22.39327000    6.30295000      0.089949   -1.01349200   -0.56086000
Ge   10.26328000    2.42757000   17.90172000     -1.202868    1.79406000    0.30287300
Ge   13.52281000    6.79509000    6.05504000      0.339776    0.11867300   -0.21340300
Ge   13.60608000    8.44370000   18.91456000      0.248478   -0.82567600   -0.06406500
Ge   15.41586000   12.73155000    6.49251000      1.125083   -1.03929000   -1.53370300
Ge   16.76098000   15.36738000   16.50678000      0.361903   -0.42395900   -1.17558000
Ge   12.41944000   16.42535000    5.02881000      0.202824    0.44102800   -0.82872600
Ge   15.23767000   17.44219000   16.57774000     -0.807319    1.49072400   -1.20315500
Ge   15.28689000    0.26744000    9.72642000     -0.285517    0.58796000   -0.32313200
Ge   16.34230000    4.87829000   18.57779000     -0.567402   -0.63960000   -0.54027100
Ge   20.08613000    6.12745000    6.95189000     -1.702627    1.38759500   -0.18616300
Ge   22.05613000    5.35511000   16.28993000      0.824342    0.16822500    0.26805500
Ge   19.91770000    9.71145000    7.99801000     -0.009467   -0.70919000   -0.16647500
Ge   22.03488000   13.07041000   17.40312000     -0.898530   -0.01621100    1.26664400
Ge   18.55765000   18.36775000    7.60431000      1.715387   -0.99557000    0.33173600
Ge   20.61868000   19.26506000   16.77248000      0.633240   -0.76209600   -0.98614500
Ge   19.76840000    0.42991000    5.50984000     -0.010706   -0.20834800   -1.23575000
Ge   20.25328000   20.81839000    0.63054000      0.196984    0.84000400   -0.12693000
Ge    5.39430000    2.36878000   10.79590000     -0.121378   -0.16312200    0.76870800
Ge    5.65154000    3.40682000   17.23480000     -0.991934    0.09657000    0.48493900
Ge    3.52740000    6.80828000    4.93134000      0.014193   -0.81451000    0.32171800
Ge    2.77592000    9.56690000   12.72020000      0.347382    0.14022700   -0.10642700
Ge    2.88113000   16.81958000    7.19162000     -0.782240    0.46961500   -0.68269100
Ge    0.58951000   14.18665000   15.80131000      2.543761    0.67063800   -0.60417800
Ge   22.84474000   20.32921000   10.33826000     -0.016474    0.20842000   -0.08453800
Ge    3.19900000   22.60308000   15.29875000     -0.079922    0.07675800   -1.10590600
Ge   10.04967000    3.46767000    3.03128000     -0.733411   -1.30592200   -0.28352300
Ge    7.99863000    2.45077000   16.18721000      1.687070   -2.22880700   -0.35057700
Ge    9.08832000   10.51143000    5.62611000      0.060661    0.27208600   -0.70962800
Ge    7.26571000   10.53359000   15.58370000      0.074471   -0.23356500   -0.33186300
Ge    9.81033000   14.64937000    6.40033000      0.466028   -1.18068200   -0.79473300
Ge   15.61798000   11.18169000   16.00900000     -0.691562   -0.05715000    0.69058500
Ge    7.65168000   21.20621000    4.38756000     -0.231652   -0.21499300   -0.71128300
Ge    8.44563000   20.13143000   15.53065000      0.962904    0.08497400    0.85964800
Ge   15.08739000    1.85110000    6.52926000     -0.249885   -0.68947800    0.18163700
Ge   12.81306000    2.15447000   15.46393000      1.273763    1.18396100    0.87703900
Ge   15.53214000    9.71072000    4.71440000     -0.093263    0.16060700   -0.94902500
Ge   15.67808000    7.68824000   15.10826000      0.221137   -0.57589100    0.39937200
Ge   15.32855000   14.52787000    3.63727000      0.385380   -1.70799900   -0.36114600
Ge   12.53325000   16.00504000   15.34723000      0.486330    0.61670700    0.78323700
Ge   14.21259000   19.32386000   19.43108000     -0.199877   -0.40855300   -0.92790700
Ge   10.11118000   21.37488000    0.83601000     -0.699170   -0.69092700    0.08278900
Ge   23.21031000    4.67221000    3.81538000     -0.641168   -0.16184700   -0.39955900
Ge    0.32270000    2.32541000   16.16276000      0.015411    0.00453700    0.25245800
Ge   21.66010000    9.26723000    6.14941000     -0.110580   -0.64113100    0.08338100
Ge   20.99053000    9.56540000   13.89077000     -0.440401    0.46335000    0.20760700
Ge   22.68819000   16.12730000    6.35536000      0.157685   -0.33052100   -0.87012500
Ge   19.63569000   13.93922000   12.53038000     -0.549771    0.90275000    0.46439200
Ge   20.15276000   20.69037000    5.66898000     -0.124323   -0.21035100   -0.22251600
Ge   20.94530000   23.08985000   17.67028000     -0.423385    0.90939600   -0.07059900
Ge    6.16948000    4.21718000    5.95610000      0.150052    0.76483100   -0.66527800
Ge    3.35695000    2.71457000   13.95115000     -2.071084   -0.67690300    1.04279900
Ge    5.32542000   10.52604000    3.31288000     -0.047902    0.67234600    0.71707800
Ge    7.13700000    9.15320000   12.24854000      0.069812   -0.07687900    0.83054700
Ge    5.60570000   15.21589000    0.79815000     -0.462597    0.00047500   -1.26252000
Ge    5.03382000   12.66917000   13.35289000      0.676728    0.51170700   -0.07752000
Ge    4.85634000   22.32780000    5.62859000     -1.255975    0.47848800    0.80620100
Ge    6.03987000   21.55336000   13.92321000     -0.527631   -0.38727200   -0.80882100
Ge   15.19245000    5.93769000    2.84803000     -0.654763    0.02509400   -0.02359500
Ge   13.52407000    0.27822000   12.72499000     -0.370585   -0.11797400    0.38153100
Ge   10.98555000   10.06328000    0.48053000     -0.258717    0.04976200   -0.48407300
Ge   13.90411000    8.94958000   12.88783000     -0.235283    0.83181300   -1.23670900
Ge   10.50424000   13.38995000    2.32077000      0.605055   -0.33886300   -0.17631700
Ge    8.68704000   16.85608000   10.92909000     -0.228260    0.26953600    0.61978900
Ge   12.55815000   22.18842000    1.30712000      0.015057    0.94763100    0.90446500
Ge   11.10549000   22.45501000   14.22136000     -0.701448    0.51405800   -0.94576400
Ge    1.25676000    1.69457000   19.05678000     -0.005318   -0.85297700   -0.56066200
Ge   12.52448000    5.86840000   12.69991000     -0.176776    0.00443900    0.29062700
Ge   17.37105000    7.79703000    0.05930000      0.327721    0.90779500   -0.19458200
Ge   12.51392000    6.55555000    8.43476000      0.441715   -0.46114700    0.80528000
Ge   21.21176000   13.16753000    2.81350000     -1.877690    1.55586200    0.74713000
Ge   15.62929000   17.71846000    8.45807000     -0.067057   -1.33525000   -0.70190400
Ge   17.16627000   21.33463000    2.96270000      0.948792    0.15832900   -0.32657500
Ge   18.87067000   21.81559000   13.49843000      0.968068   -0.09015200    0.69601200
Ge    0.53953000    1.21139000    2.58446000      0.621306    1.63887300    0.42054100
Ge   22.17111000    2.12981000    9.81365000      1.405549    0.19198600    0.36979100
Ge   22.66921000    9.63482000    3.05304000      0.403719    0.45100400   -0.13234900
Ge   23.51339000    8.95888000   12.64916000     -0.514902   -0.37560500    0.86109900
Ge    2.94434000   13.22654000    3.04473000     -0.160873    0.64770100   -0.45510800
Ge    0.45905000   16.67294000   11.22720000     -0.051155   -0.37637900    0.16380000
Ge    0.46496000   21.42882000    4.26298000     -0.503729    1.38459100    0.91389400
Ge   20.72290000   17.80245000   12.17089000      0.144094   -0.19813900   -0.65289000
Se    2.82901000   23.48320000    0.50253000     -0.203981    0.33180000   -1.19204200
Se    1.08521000    1.69634000    9.44900000     -0.655930    1.06167900    0.63805100
Se    0.87471000    7.01586000    1.11687000      0.155870   -1.28549100    1.08569400
Se   23.21805000    9.87211000   10.51532000     -0.141127   -0.10214000   -0.21786000
Se   22.24407000   11.74256000    1.48169000      0.786211   -0.91108800   -1.86758500
Se    0.74832000   13.93974000    8.83016000     -0.121863   -0.40339700   -0.14019600
Se    1.87160000   19.57129000    3.64947000      0.703878   -0.30551200   -0.94024400
Se   23.16641000   18.75876000   12.36316000     -0.047963    0.51099500   -0.41679600
Se    6.83487000    2.77561000    2.38175000      0.272686    0.79198300   -0.17907000
Se    5.37777000    3.56828000   13.39081000      1.514820    0.20911500   -0.52232500
Se    9.60006000    5.05026000    5.06854000     -0.774995   -0.95346900    0.24674400
Se    7.75683000    8.83137000    9.82565000      0.643251    0.34226300   -0.36402400
Se    8.29363000   10.59899000    0.16398000     -0.273433   -0.50399700    0.20702300
Se    7.46933000   14.71279000   11.36477000     -0.259498    0.41464000   -0.38003700
Se    7.13134000   19.89534000    1.95899000      0.735424    0.04544900    1.01625100
Se    9.55480000   20.72720000   12.27481000      0.462475    0.79932700   -0.45240300
Se   12.41097000    0.53153000   19.76056000      0.588196    0.50713900    0.68895800
Se   12.69326000    2.53667000   12.01711000     -0.977937   -0.47386300   -1.15165700
Se   11.04996000    8.61725000   17.82602000      0.851829    0.51097800    0.61439700
Se   11.04858000    9.89099000    7.00135000     -0.210839    0.41043200    0.22356200
Se   13.34539000   13.47415000    1.42456000     -0.507030    0.89910600    0.18250600
Se   12.20310000    8.71676000    9.48110000      0.125876    0.08856700    0.64191500
Se   15.02012000   16.94521000    1.07725000      0.022908    0.00664000   -0.17608500
Se   12.17333000   19.27740000   11.44575000      0.149060   -0.41833300    0.07226900
Se   20.23893000    3.05705000    3.99862000     -1.711720    2.06944300    0.82778800
Se   13.97449000    3.71234000   13.46605000      0.500005    1.03451600    1.41927700
Se   16.28764000    5.40193000   16.09090000     -0.309998    0.18480300    0.30355600
Se   20.13356000    3.70494000   13.79097000      0.397155    0.79575000   -0.23142300
Se   19.48325000    9.68125000    0.88368000     -0.598296   -0.04042100   -0.85226100
Se   16.60400000   19.62345000    7.00564000     -0.638539    0.14074200    0.32181000
Se   19.68001000   17.59340000    0.88930000     -0.266177   -0.24730400   -0.00766000
Se   19.95351000   19.11861000    9.86842000     -0.263651   -0.31199600    0.07894900
Se    3.17646000    0.57853000    4.59105000     -0.173632   -0.11334500   -0.06346500
Se    2.76342000    5.24409000   12.02354000     -0.092373    0.37727600   -0.70724100
Se    5.81367000   11.69348000    0.95819000     -0.179016    0.04804200   -0.44583100
Se    4.79694000   12.83410000   10.74872000      0.120027   -0.07125200    0.03242600
Se    3.85262000   13.16419000    0.57365000      0.051280    0.20269300    0.32496100
Se    2.99712000   17.15910000   10.92502000      0.949849    0.30336300   -0.45743500
Se    5.68083000   21.85330000   19.40364000     -0.265540   -0.75081200   -0.17162700
Se    5.10933000   19.92925000   11.88467000     -0.403944   -0.21093700   -0.11137000
Se   11.06670000    6.40790000    2.06443000     -0.104655    0.23751400   -0.29727500
Se    7.74136000    3.06932000   11.00487000      1.221520    0.48524800   -0.07605800
Se   10.39311000   12.60056000   18.71162000      0.107461    0.03712800    0.30059500
Se   10.56823000   11.10373000   11.74542000      0.520471    0.06490500   -0.17361200
Se   11.11932000   15.76989000    2.65791000      0.481350    0.57756100   -0.00069700
Se   12.26335000   15.65196000   12.99811000      0.595133   -0.47620700   -0.81281400
Se   11.02115000    0.26451000   17.93703000      0.200682   -2.11123500   -0.64482800
Se    9.92582000   23.55003000   11.50776000      0.321284    0.04346100   -0.20252500
Se   11.89683000    3.95721000   17.02342000      0.244757    0.15841000    0.14076100
Se   17.78653000    8.09721000    8.99942000      0.114666    0.58764200    0.68051800
Se   16.60349000    9.86128000    2.28159000     -0.131177   -0.10417700    0.98325500
Se   18.04862000   14.11759000   10.48903000     -0.044271   -0.97615800    0.55097200
Se   18.85832000   14.76975000    1.97406000      0.332077   -0.17763800    0.44472100
Se   13.92364000   15.80888000    7.85528000      0.576880   -0.17907400    0.46618000
Se   17.97682000   22.66591000    0.89818000     -0.350988   -0.22773400   -0.28693200
Se   17.08964000    0.78366000   11.17757000      0.485455    0.19886900   -0.50163800
Se   23.67107000    2.91812000    0.76513000      0.036279   -0.04427900    0.66660200
Se   22.52369000    4.41551000   10.66929000     -0.620302   -0.10562300   -0.52126600
Se   21.45121000    5.33210000    2.09844000      0.334459   -0.16151900    0.36772300
Se   20.44050000   11.67933000   12.22725000      0.751693   -0.58840800   -0.42785900
Se   22.84428000   14.49161000    3.95066000     -0.155082    0.38102600    0.38459200
Se   21.72486000   15.35824000   10.83007000     -0.802693   -0.04864200    0.12145500
Se   23.45786000   22.76532000    2.31394000     -0.919098   -2.36883800   -0.61055200
Se   21.72167000    0.49887000   15.50863000      0.251166   -0.61215400   -0.14496900
Se    4.24573000    4.29401000    9.86148000     -0.959766    0.80715300    0.05749000
Se    4.22264000    6.24916000   18.45575000      0.918585   -0.31617800   -0.34772100
Se    4.00555000   12.03402000    8.10506000     -0.199486   -0.42073600    0.41998400
Se    4.08602000    7.22167000   15.40979000      0.825740   -0.21690900   -0.65764100
Se    6.11164000   20.08801000    5.92841000     -0.202326   -1.01279900    0.94822800
Se   21.91541000   15.30014000   19.31834000      0.597691    0.18476600   -0.62535100
Se    1.06323000   21.74306000   10.89724000      0.130873    0.26793400    0.13405000
Se    2.43502000   19.98169000   18.16530000     -0.169337   -0.66743000   -0.74555100
Se    7.69240000    3.19676000    7.67291000     -0.630120    0.35491400    0.48755500
Se    5.65947000    4.44045000   19.82371000     -0.138322    0.09213900   -0.50528500
Se    6.79897000   10.35172000    6.27852000      0.052107    0.31501600   -0.04397600
Se    4.06481000    9.40021000   19.54812000     -0.103403    0.03751000   -0.06115200
Se    6.73585000   18.25211000    9.39358000     -0.782563   -0.25370200    1.53033300
Se    6.46478000   15.59139000   18.05628000     -0.488983    0.29838200    0.56249000
Se    9.79594000   20.58614000    8.34330000      0.354318   -0.63880900    0.24124500
Se    9.21825000    3.06593000    0.46687000      0.080568   -0.18543300   -0.66877200
Se   14.45750000    2.51429000    8.99970000     -0.059044   -0.24212700    0.21085800
Se    8.31156000    4.74833000   18.30296000     -0.096564    0.18090900   -0.15415700
Se   10.19568000    5.76049000    8.56431000     -0.096176   -0.58357700   -0.24871700
Se   17.65538000   12.44170000   15.99723000      0.732001   -0.28483400    0.48760900
Se   13.44685000   19.03002000    7.71195000     -0.471514    0.14040600    0.79192900
Se   14.79571000   15.80699000   18.21273000     -0.824672   -0.24336700    1.39268300
Se   15.78581000   23.05914000    7.50408000     -0.152330    0.86125700    0.33951300
Se   18.99749000    2.44623000   16.82973000     -0.054232   -0.60952900    0.34215100
Se   17.22455000    3.65985000   11.55033000      0.520875    0.20368100    0.79276800
Se   22.73766000    3.94454000   18.14699000      0.093457   -0.51103000   -0.69990300
Se   18.58980000    9.61359000   13.27587000      0.335122   -1.53511200   -0.44430000
Se   19.68481000   10.74390000   16.52217000      0.397896   -0.30911700   -0.24272400
Se   16.04280000   18.31623000   10.77736000     -0.222785    0.60455600    0.13829100
Se   19.50272000   14.11047000   18.34986000     -0.600032   -0.81304400   -0.44044000
Se   18.63360000   23.05626000    7.42681000     -0.913818   -0.10772400    0.94371900
Se   18.13017000   19.57406000    0.96769000     -0.122521   -0.09698700    0.59187600
Se    4.78354000   22.32670000    9.16693000     -0.011561    0.42989700   -0.37813800
Se    3.58075000    3.13775000    0.08177000     -0.754952    0.43821000    0.38124500
Se    6.88195000    6.65893000   10.31394000     -1.276062    0.43514600   -0.32181200
Se    5.23293000    7.08262000    0.72367000     -0.936051    0.35953100   -0.53438700
Se    5.52302000   16.03932000    6.88083000      0.198089   -0.07700200   -0.12488200
Se    6.59842000   11.80964000   17.51484000      0.709023    0.37216800    0.31187200
Se    2.48407000   19.11461000    8.27675000      0.093399    0.01178800    0.24306300
Se   22.68434000   19.36908000    0.34706000      0.227749   -0.64449200   -0.00479400
Se    9.08175000   23.43659000    7.39847000     -0.031913    1.28529700    0.17203400
Se   12.08240000    4.30930000    2.04677000      0.945733    0.03298100   -0.24185400
Se   11.49811000    2.36836000    9.49865000     -0.523723   -0.62962900   -1.13659500
Se    8.64569000    6.66097000    0.78932000      0.077749    0.54552600   -0.12507100
Se   11.20666000   14.03028000    8.19705000      0.190075   -0.84431300   -0.32989900
Se    8.72632000   14.03970000    0.59918000      0.335151   -0.42524800   -0.34670700
Se   13.57525000   22.46164000   10.74727000     -0.105657    0.20149600   -0.74359400
Se   14.63038000   13.30950000   16.79926000      0.041147   -0.97677500    0.02389500
Se   17.48986000    3.43365000    7.76177000     -0.081648   -1.48809800   -0.01316500
Se   17.55694000    4.92258000    1.90449000     -1.583626    1.07176400    0.13576500
Se   15.39714000    8.00424000    8.87457000     -0.494464   -0.91148000    0.25298500
Se   15.86552000    8.96013000   17.50038000     -0.062361    0.40603300   -0.13839600
Se   14.41876000   13.43345000    8.47901000      0.239512    1.33541700    0.38853400
Se   15.77303000   12.39571000   19.68094000      0.952666    0.30550700   -0.16943600
Se   14.32759000   19.87651000    3.89607000      0.381835   -0.92537300   -1.27588700
Se   19.57168000   21.00730000   17.93061000     -0.227853    1.10061200    0.77131800
Se   21.70415000    1.33703000    7.43071000     -0.134494    0.46028900   -0.14240900
Se    0.40918000   23.47808000   15.90648000      0.217674    0.51263800    0.03428400
Se   20.85935000    7.36067000    9.01237000     -0.429421    0.58835000    0.52277700
Se   23.12665000    7.54537000   16.89502000      0.000604    0.13027200    0.12310400
Se    0.11676000   10.86385000    7.89792000      0.088977    0.81435900   -0.16730700
Se   22.09290000    7.83849000   19.04126000     -0.231249    0.27690200   -0.61013400
Se   21.16877000   17.43082000    7.73891000     -0.423483   -0.27005700    0.36074200
Se   19.14960000   17.74586000   18.46505000      0.048941   -0.55673000   -0.62541300
Se    1.13123000   23.24804000    8.85689000     -0.104700   -1.58244300   -0.10173900
Se    3.60607000    0.37254000   12.82217000      0.085316    0.08035800    0.87134400
Se    2.50967000    8.22024000    8.20145000     -1.147300   -0.11787400    0.06456200
Se    2.30273000    8.67142000   18.00287000      0.193904   -0.18237200    0.70917300
Se    0.63091000   16.25430000    8.38270000      0.553034   -0.10804200    0.61591200
Se    0.98760000   13.10031000   18.15295000      0.366954   -0.98306200   -0.29340800
Se    3.09496000   19.56297000    5.75492000      0.048063    0.13981200    0.00262900
Se   23.10300000   19.39619000   16.57716000     -0.238140   -0.82747300    0.33577300
Se    6.58004000   23.33688000    4.45894000      0.345220    0.73032200   -0.72791100
Se    6.29064000    0.90471000   17.62684000      0.204114    0.14654100   -0.44950200
Se   11.33695000    6.48279000    4.90643000      0.307075    1.16263100   -0.08366700
Se    6.87678000    7.64036000   15.47786000     -1.090143    0.43886300    0.40861200
Se    7.98985000   15.11827000    7.63473000     -2.089320    0.02740700    1.46261600
Se    8.36074000   19.03020000   13.29303000     -0.419164   -0.82798800   -0.31325600
Se    7.93935000   16.47602000    3.36853000     -0.121190   -0.50772700   -0.36801600
Se    9.36962000   16.52893000   15.03530000     -0.290293    0.22323800    0.88007200
Se   14.77448000   21.34143000    5.55009000     -0.036548    1.42048300    0.27547900
Se   13.89840000   23.01539000   15.55100000      0.688406   -0.03571100    1.18300400
Se   13.46596000    8.52869000    4.02929000     -0.564846   -0.26673300    0.52689000
Se    9.55562000    8.08865000   13.28501000     -0.361019   -0.13056500    1.22515200
Se   14.19495000   12.22049000    4.37903000     -0.375879   -0.08324600    0.79354100
Se   15.07663000   15.34219000   14.11540000      0.215028    0.24248200    0.81563000
Se   12.26644000   19.01579000    4.41093000     -1.024729   -0.76701300    0.11777200
Se   15.83353000   19.68171000   17.33894000      0.020580    0.94068500    1.35449500
Se   18.13945000    1.96432000    4.29746000     -0.479413   -0.97435300    0.30947000
Se   19.07493000    0.86355000   18.66111000      0.265336    0.43829600   -1.07068100
Se   19.50723000    8.36000000    5.11976000      0.703473   -0.34822400    0.74467300
Se   19.74865000    5.91706000   16.76366000     -0.630353    0.39137900    0.19862000
Se   19.40808000   11.85298000    4.27759000      0.642845    0.44043500   -0.26413000
Se   17.08560000   12.88514000   12.46361000      0.167854    0.39879400   -0.62467900
Se   19.36715000   18.53168000    4.43145000     -0.288802    0.28193000    0.58513400
Se   21.03276000   20.56550000   14.71316000     -0.991066    0.26652900   -0.79034100
Se    5.58084000    7.01072000    6.28081000     -0.137280   -0.61734000    0.00287600
Se    3.10300000    3.11954000   16.83925000     -0.325202   -0.49265200   -1.52538300
Se    3.18389000    9.21236000    3.75125000     -0.272642    0.31633800   -0.24832300
Se    4.78203000   10.56602000   14.65184000      0.525545   -1.03130800   -0.58216400
Se    4.98502000   14.56653000    5.06290000     -0.249764   -0.33729300    0.29993300
Se    1.72162000   17.10453000   18.51331000      1.302810   -1.58609100    0.34339500
Se    1.28394000   23.39482000    5.74141000      0.150919   -0.20749900   -0.65757900
Se    3.16815000   20.16870000   13.19034000      0.122544    0.26320800    0.14982300
Se   12.65026000    0.66326000    6.53063000     -0.036025    0.78688100   -0.45686600
Se    7.61004000    4.71340000   15.85784000     -0.417925    1.69823300    0.02315000
Se   12.25489000   11.90055000    6.86017000     -0.807713   -0.14286600    0.06530500
Se   11.30694000   14.15081000   16.96072000     -0.459628   -0.08580100   -0.25501500
Se   10.25224000   16.74990000    8.92953000     -0.318308   -1.05308700    0.06000300
Se   11.18879000   20.07047000   18.75562000      0.158256    0.13281200   -0.02308700
Se    9.66596000   22.33566000    3.76395000      2.081102   -0.04194900    0.11249700
Se    8.23978000   20.75630000   18.87382000     -0.142908    0.84228600   -0.16533800
Se   15.16960000    5.21183000    5.31826000      0.179776   -0.33790700    0.23305300
Se   14.04565000    5.88909000   19.17059000      0.182150    1.02392100    0.27537700
Se   16.30429000   10.27474000    6.98027000     -0.106530    1.03201000   -0.29836600
Se   17.96557000    7.09108000   13.50909000      0.361210    0.85809100   -0.21686000
Se   17.05356000   14.14648000    5.33193000     -0.158343    0.12500600    0.69486800
Se   12.95394000   18.44942000   15.92849000      0.498188   -1.22224900   -0.16581400
Se   15.27692000   23.59694000    4.00772000     -0.634150    0.03934500   -0.01009300
Se   17.78254000    3.92611000   13.99592000     -0.778342   -0.07522000   -0.77753200
Se   22.09322000    5.36866000    6.21910000      1.692091   -1.14847000    0.06177700
Se   23.22535000    5.12508000   13.81808000     -0.416367    0.13031100    0.97706100
Se   17.46764000   10.53672000   10.07578000      0.166521   -0.25260400   -0.17453400
Se   22.02145000   14.17475000   15.16534000     -1.511010    0.28585000   -0.54785300
Se   17.78835000   16.27709000    8.72317000      0.341180    0.34050000   -0.77627400
Se   22.61333000   16.62810000   15.54776000     -0.753459    0.23335400    0.67685500
Se   20.95255000   22.93606000    8.15757000      0.663518   -0.25966200    0.64916600
Se   22.78737000   23.21000000   19.04670000      0.596401   -0.24445800    0.57301400
Se    4.27909000    3.29315000    7.33318000      0.567341   -0.71391600    0.18185500
Se    5.45676000    0.21031000   14.59650000     -1.055132    0.11869800    0.21019500
Se    3.86058000    4.79319000    3.16939000      0.640505    0.69655300    0.30302400
Se    4.27280000    8.40593000   11.13957000      0.151053   -0.02007200    0.41440200
Se    1.58780000   11.10009000    3.46959000     -0.166489    0.26850500   -0.41331800
Se    4.41089000   14.28717000   15.04969000      0.693856   -0.05936600    0.39181000
Se    4.65078000   17.20924000    1.79929000     -0.556498   -0.41796600   -0.46553300
Se    3.32349000   16.83293000   13.28568000      2.136616    0.43340500   -0.78768700
Se    9.95032000    0.45748000    2.27147000     -0.031591    0.54088200   -0.22182800
Se   10.63430000    1.60774000   14.75572000     -0.332447   -0.98877200   -0.65642300
Se    9.93395000    9.14358000    3.45706000      0.373243    0.60094700    0.67051800
Se    8.77384000    8.85793000   16.89046000     -0.009973   -0.23560600   -0.22597900
Se    9.15847000   12.93741000    4.75244000      0.196604    0.09264000    0.00383200
Se   12.95218000   11.46001000   12.85542000     -0.603671   -1.30973100   -0.14080100
Se    9.65712000   18.81731000    2.22251000     -0.814608    1.00014000   -0.54790100
Se    8.89206000   22.68055000   15.25981000     -0.413923   -0.48475000    0.09427600
Se   18.63551000    5.13163000    8.76019000      0.336700    0.47543700    0.34963800
Se   14.75943000    1.25639000   16.85092000     -0.405603   -0.67741900   -0.58477800
Se   16.66397000    7.61653000    3.82653000      1.338500    0.39855300    0.22662300
Se   12.83145000    7.57025000   14.60484000      0.007678   -0.53912800    0.59596000
Se   17.29162000   12.24956000    1.75364000     -0.498043    0.45500300    0.03202000
Se   18.91752000   18.38803000   14.31380000     -0.244396   -0.11608400    0.22658700
Se   15.58605000   16.83446000    3.42807000     -0.000780    1.28981500    0.20524900
Se   16.88689000   20.47216000   13.83293000      0.130436   -0.37737400    0.34508900
Se   22.26962000    2.06629000    4.10591000      2.198658   -0.73251600    0.25021000
Se   22.13126000    0.92293000   11.94523000      0.695706   -0.34708200   -0.06007800
Se   23.64217000    8.03878000    5.19964000      0.164577    0.81169600    0.23713200
Se   21.91662000    7.02665000   13.06042000     -0.849528    0.34441900   -0.43959700
Se    0.99005000   17.09418000    5.30479000      0.392252   -0.07066200   -0.05010600
Se    1.32929000   11.97636000   14.71953000     -0.279469   -0.53967900    0.52692600
Se   22.61754000   20.90075000    6.10685000      0.109133   -0.21401700   -0.68771200
Se   19.85207000   21.07903000   11.39473000      0.547401    0.45169900   -0.73652600
Se    2.11838000    3.74338000    6.64829000     -0.264241    0.64648900   -0.83206200
Se    1.21641000    3.47334000   12.53486000      1.475653   -0.13688900    0.30575600
Se   21.66738000   11.38207000    4.86178000      0.464111   -0.60560500    0.44774600
Se    1.50620000    7.75151000   13.92483000      0.592418    0.41108900   -0.04066900
Se    1.51591000   15.18393000    1.80538000      0.267533   -0.58710800    0.39140800
Se    1.24669000   16.50304000   13.83381000     -1.940041   -0.79682700    1.14608800
Se    3.46791000   20.66383000    1.61240000      0.189556   -0.30310800    0.87135700
Se    5.65901000   17.71232000   17.32468000      0.141281   -0.61058300    0.48470700
Se   11.36467000    2.65876000    5.45155000     -0.157587   -0.51701200    1.02250600
Se    8.42090000    2.29918000   13.50609000     -0.361952    0.13102700   -0.17403900
Se    6.08436000    8.25944000    2.74659000      0.599224    0.37619500    1.07678600
Se    9.09200000   10.87457000   13.67434000     -0.329430    0.32179200   -0.48110500
Se    6.98169000   13.99137000    2.39282000      0.415105    0.65953500    0.56510500
Se    9.89569000   15.43166000   13.09912000     -0.396275   -0.51571700   -0.71332600
Se    6.95952000   22.87929000    9.96514000     -0.133075   -0.21623300   -0.21620500
Se    6.04223000   20.18109000   15.71565000     -0.934044   -0.77034100    1.58090200
Se   13.18321000    0.74005000    3.20535000      0.676933   -1.22559800   -0.67132300
Se    9.39974000    5.65099000   13.54281000      0.599038    0.00341900   -0.87571300
Se   13.31147000    9.46823000    1.43797000      0.281527    0.22783600   -0.38873500
Se   15.41217000   10.88625000   13.65212000      0.220506    0.07982100   -0.15159100
Se   10.05055000   16.82834000    5.69926000      0.516991    1.15506400   -0.43782700
Se   13.93247000   17.46859000   11.65514000     -0.549434    0.58300100    0.08140900
Se   14.88534000   21.29689000    0.92827000      0.130374    0.07667800    0.00668200
Se   15.36567000   22.37094000   13.72947000     -0.170131    0.38897700    0.13897400
Se   18.71408000    5.68953000   19.49812000      0.120743    0.11371100   -0.39133900
Se   14.99252000    5.73172000    9.88769000     -0.803513    0.98376400   -0.43754300
Se   20.49468000    8.34702000    2.42972000     -0.091121   -0.71279100    0.66703300
Se    2.72954000   12.42296000   12.89857000     -2.055825    0.42617000   -1.20398400
Se   21.21668000   17.55203000    3.56216000      0.282096   -0.26696800    0.16525800
Se   17.59865000   16.45611000   13.79368000      0.008610   -0.33205900    0.09845100
Se   19.72693000   22.10987000    3.59104000     -0.161592    0.06271700    0.72635100
Se   18.91505000    0.49470000   14.72608000      0.072578   -0.15978300    0.25202800
