384
23.69824000 23.69824000 19.89960000
Ge    5.23806000    6.26875000   13.29264000     -0.600290    0.28159300    0.46606100
Ge    6.97649000    5.12791000    3.06678000     -0.486847   -0.97350800    0.13264700
Ge    2.06957000   12.81875000    6.82730000     -0.575087    0.23591900    0.08804600
Ge    9.02726000   13.96637000   15.63462000      1.021928    0.30329700    0.39077900
Ge    5.43337000   15.25268000   10.02251000      0.298339   -0.25645600    0.37304000
Ge    9.25932000   18.57276000   19.42147000      0.442101   -0.73411900    0.11119800
Ge    7.43531000   22.81796000   12.44430000      2.070899    0.76910400   -1.18479700
Ge    5.08666000    1.22706000   19.83389000     -0.038275   -0.76691100    1.14006500
Ge    8.94991000    5.63162000   10.79539000      0.785669   -1.42199900    0.23230100
Ge   10.69182000    6.30609000   18.79905000      0.186751   -0.41079400    0.58668500
Ge   10.10601000    7.92537000   10.98633000      0.633710    0.83314100   -1.78297000
Ge   13.16785000   11.75484000   19.61988000     -0.038843   -0.43659500   -0.89996900
Ge   11.25566000   18.77056000    9.24463000      1.368879    2.37737100   -0.21340200
Ge   12.78735000   15.86838000    0.13880000      0.032594   -0.43868300    0.72280500
Ge   11.26873000   23.29854000    9.12377000     -0.431568    0.48647700    0.56725100
Ge   16.13649000   22.23121000   18.89870000      0.809615    0.35232300   -0.38206500
Ge   19.35082000    5.67723000   11.78295000     -0.014130   -0.54267800    0.14558200
Ge   19.76307000    8.20605000   18.09103000      0.097831   -0.01247600    0.05976900
Ge   19.56127000   11.92223000    9.79936000     -0.246386   -0.16409700    0.25059800
Ge   18.39105000   11.74691000   18.51211000     -0.046331    0.54829100    0.05099700
Ge   15.01036000   20.58390000    9.41939000      0.121860   -0.59702500   -0.62681000
Ge   17.69138000   15.13785000   19.74096000      0.204039    0.11112700   -0.07372600
Ge   19.88155000    1.46091000   12.53534000     -1.181786    0.42666700   -0.34407200
Ge   19.36767000    3.53952000    1.74999000      2.292392   -1.03729600   -0.89750200
Ge   23.03934000    5.99622000    8.81622000      0.265805    0.03730400   -0.63353400
Ge    2.22040000    3.22461000    3.83934000     -0.514685   -0.57432900    1.25492600
Ge    1.84894000   10.33534000    9.72356000      0.215070    0.03669900   -0.09120900
Ge    0.95986000    9.19474000    0.35368000      0.281885    0.26070600   -0.54171800
Ge   20.50346000   14.77157000    8.73748000      0.170494    0.99024500   -0.03799000
Ge    0.60514000   15.00657000   19.47036000      0.664133    0.61403900    0.81300500
Ge   19.06627000    1.52624000    9.00224000     -0.872190    0.24793300    0.03579700
Ge    1.25931000   20.68916000    0.38537000     -0.652929    0.72476300   -0.11796200
Ge    4.80212000    8.91957000    8.31681000      0.565513   -0.05234900   -0.06905000
Ge    1.68719000    5.65586000   19.10748000     -0.314671   -0.08259000   -0.18400400
Ge    1.86039000    9.88452000    6.32776000     -0.532297   -0.34472900   -0.42815600
Ge    4.44100000   12.05864000   16.65484000     -1.545334    0.88631100   -0.07318400
Ge    6.03412000   18.16279000    3.48531000      0.769572    0.17274100    1.00660700
Ge   23.21951000   17.71634000   18.46601000     -2.698694    0.74373900   -0.38474300
Ge    4.69725000   19.81146000    9.17070000      0.229218    0.07058500    0.91988100
Ge    3.26524000   22.15433000   17.99905000      1.145706    0.99550900    0.70027000
Ge    9.83867000    2.20778000    7.40920000      0.561926   -0.59205900    0.15645700
Ge    6.78635000    8.08196000   18.43131000      0.087724    0.02842100   -0.11274300
Ge    6.11561000   13.05822000    6.99641000      0.145026   -0.40996900   -0.49173200
Ge    8.22602000    9.00192000    1.88965000      0.544268   -0.83030300   -0.42023200
Ge    7.93420000   18.80320000    7.46027000      1.130082    0.24343600   -0.98697500
Ge    4.54425000   19.01702000   19.68927000      0.151654    0.54910700   -0.53690900
Ge   11.02116000   22.33166000    6.31954000     -0.042106   -0.63922100   -0.37077700
Ge   10.24342000    2.50641000   17.93707000     -0.680130    0.29012900    0.26220400
Ge   13.55088000    6.78798000    6.05295000      0.415634    0.09403000   -0.21245500
Ge   13.65532000    8.43367000   18.94778000     -0.067871   -0.81686800   -0.10107600
Ge   15.43547000   12.77630000    6.44424000      0.805691   -1.31147900   -0.73713400
Ge   16.79211000   15.30394000   16.47869000      0.011144   -0.22784300   -1.06048300
Ge   12.41599000   16.51961000    5.03218000      0.658033   -0.00916100   -0.85326800
Ge   15.17286000   17.41227000   16.51466000     -0.366431    1.30341900   -0.96827300
Ge   15.33817000    0.30782000    9.66688000     -0.617144    0.27967600   -0.12458600
Ge   16.32947000    4.96517000   18.55922000     -0.749981   -0.87918000   -0.49351400
Ge   20.08954000    6.12511000    6.90871000     -1.885230    1.47002200    0.11842800
Ge   22.04735000    5.35359000   16.26891000      0.961986    0.17205400    0.38336100
Ge   19.92681000    9.72881000    7.99216000      0.084813   -0.78043400   -0.09316800
Ge   21.99486000   13.05180000   17.40017000     -0.611657    0.13578100    1.21232600
Ge   18.59949000   18.32396000    7.67339000      1.134712   -0.02172800   -0.18029100
Ge   20.64422000   19.22882000   16.76819000      0.157957   -0.61769300   -0.72537200
Ge   19.79282000    0.39480000    5.47158000     -0.228016   -0.22956100   -0.99343000
Ge   20.25731000   20.82458000    0.56464000     -0.067072    0.85087300    0.11976100
Ge    5.34695000    2.28054000   10.82897000      0.095930    0.34105000    0.59060200
Ge    5.72122000    3.38454000   17.29004000     -1.333137    0.34950400    0.17873300
Ge    3.53470000    6.80509000    4.92653000     -0.137618   -0.80176100    0.46627600
Ge    2.81196000    9.58746000   12.68101000      0.050567    0.20254700    0.33813500
Ge    2.93837000   16.82888000    7.16793000     -1.339257    0.50763600   -0.36915000
Ge    0.64044000   14.15846000   15.74799000      1.844065    0.71153000   -0.36875100
Ge   22.79787000   20.37493000   10.30224000      0.373452    0.29002900    0.34800400
Ge    3.17445000   22.67536000   15.28297000     -0.228374   -0.15246100   -0.93031700
Ge   10.03742000    3.42704000    3.05172000     -0.564654   -1.15157400   -0.26427900
Ge    7.97631000    2.39519000   16.20769000      1.763425   -1.44488100   -0.56778800
Ge    9.04761000   10.58494000    5.66673000      0.386561   -0.20374700   -0.64367600
Ge    7.27329000   10.54025000   15.58995000      0.061934   -0.41379900   -0.33029300
Ge    9.79333000   14.64705000    6.31553000      0.649719   -0.90632200    0.28784800
Ge   15.64825000   11.18547000   15.96295000     -1.041310   -0.33072500    0.44690800
Ge    7.67504000   21.21758000    4.37837000     -0.449071   -0.38158500   -0.39746200
Ge    8.48427000   20.10323000   15.56227000      0.363553    0.15475700    0.91308700
Ge   15.11955000    1.86284000    6.46119000     -0.359797   -0.66679500    0.30082800
Ge   12.81742000    2.14299000   15.47942000      1.316466    1.13439300    0.80696600
Ge   15.46238000    9.67599000    4.65954000      0.858150    1.01077300   -0.19108900
Ge   15.69828000    7.65806000   15.08741000      0.227108   -0.48353900    0.43240300
Ge   15.35962000   14.50943000    3.65314000      0.401494   -1.31913400   -0.49956800
Ge   12.48335000   15.97325000   15.36513000      0.603068    0.82453500    0.37479300
Ge   14.18198000   19.37574000   19.35579000     -0.060699   -0.52104500   -0.93808200
Ge   10.08272000   21.32350000    0.81658000     -0.546235   -0.41595300    0.21814000
Ge   23.25361000    4.68943000    3.85038000     -0.836468   -0.27145300   -0.66789900
Ge    0.32068000    2.31434000   16.12762000      0.034436    0.06722400    0.27452700
Ge   21.64292000    9.26774000    6.09689000     -0.128098   -0.97793500    0.27021000
Ge   21.02264000    9.58906000   13.89132000     -0.283226    0.52067500    0.27820100
Ge   22.62409000   16.11840000    6.35959000      0.619203   -0.37931500   -1.19139400
Ge   19.62665000   13.97573000   12.54009000     -0.439798    0.46834100    0.27496900
Ge   20.09740000   20.71565000    5.68413000      0.121762   -0.29550600   -0.13519500
Ge   20.96613000   23.10450000   17.62075000     -0.237406    0.78100600    0.68785400
Ge    6.14073000    4.23178000    5.95173000      0.162026    0.66833300   -0.41876900
Ge    3.30237000    2.76527000   14.04134000     -1.391760   -0.40580200    0.71455000
Ge    5.31159000   10.51463000    3.37522000      0.106594    0.93885600    0.42156400
Ge    7.10158000    9.19781000   12.24996000      0.103391   -0.12902200    0.69186500
Ge    5.58930000   15.24206000    0.82071000     -0.132229   -0.37889000   -1.32517000
Ge    5.03182000   12.71934000   13.30620000      0.537942    0.17884700    0.64886800
Ge    4.86270000   22.30569000    5.59724000     -1.257656    0.43371700    0.75494600
Ge    6.03541000   21.55676000   13.95153000     -0.522905   -0.76249800   -0.66042900
Ge   15.16671000    5.95123000    2.91335000     -0.679214    0.06568200   -0.29246600
Ge   13.53910000    0.22204000   12.71020000     -0.491530    0.20063500    0.32916300
Ge   10.95215000   10.08088000    0.53694000     -0.166074    0.00428000   -0.36712200
Ge   13.86891000    8.92193000   12.86946000      0.005197    1.12691800   -1.62063400
Ge   10.52107000   13.37963000    2.25607000      0.634513   -0.30846100   -0.01770400
Ge    8.77096000   16.87892000   10.95084000     -0.813985    0.00798100    0.90513000
Ge   12.56252000   22.14178000    1.28538000     -0.230871    1.05587100    0.93230200
Ge   11.11511000   22.51066000   14.21817000     -0.497175    0.49916300   -1.06539100
Ge    1.28711000    1.59957000   19.06599000     -0.084602   -0.74305900   -0.56096900
Ge   12.46925000    5.87373000   12.66370000      0.065993   -0.19885600    0.34703500
Ge   17.43581000    7.76623000    0.07500000      0.197169    0.93587800   -0.13542400
Ge   12.47853000    6.56529000    8.41514000      0.514120   -0.31762900    0.98684900
Ge   21.21358000   13.22559000    2.78306000     -1.978731    1.25159800    0.57555000
Ge   15.65700000   17.69039000    8.48456000     -0.259934   -0.56079400   -0.52776500
Ge   17.18147000   21.27458000    3.00951000      1.021703    0.42851400   -0.55280200
Ge   18.88675000   21.81529000   13.44490000      0.597247    0.00430000    1.37468300
Ge    0.49381000    1.15341000    2.60571000      1.287680    2.89175500    0.66396300
Ge   22.20185000    2.11948000    9.77110000      1.150596    0.01434500    0.47667200
Ge   22.67085000    9.61853000    3.02060000      0.635780    0.60566000   -0.09444600
Ge   23.52016000    8.92111000   12.62404000     -0.149658   -0.24800200    0.84566500
Ge    2.99685000   13.22476000    2.97178000     -0.501264    0.64623100    0.09220700
Ge    0.45200000   16.71648000   11.18939000     -0.029640   -0.60901600    0.12736400
Ge    0.45903000   21.43068000    4.27680000     -0.539378    1.52005600    1.27184400
Ge   20.75465000   17.82560000   12.11072000     -0.244222   -0.47532800   -0.47959200
Se    2.77925000   23.44106000    0.49217000      0.011992    0.31723500   -1.19616600
Se    1.01299000    1.72546000    9.48072000     -0.300804    0.44658700    0.34670600
Se    0.90552000    6.95761000    1.17205000      0.243906   -0.51411200    0.45018900
Se   23.20814000    9.89391000   10.51587000     -0.204089   -0.09341800   -0.12777500
Se   22.24589000   11.75105000    1.48706000      0.683421   -0.92525200   -1.77823300
Se    0.71117000   13.91590000    8.83184000     -0.114648   -0.29728100   -0.16911200
Se    1.85698000   19.58003000    3.67716000      0.744180   -0.49094200   -0.81960000
Se   23.11767000   18.73143000   12.34818000      0.134768    0.94023300   -0.47863100
Se    6.84459000    2.73756000    2.41028000      0.242996    0.70947600   -0.17992200
Se    5.36789000    3.58375000   13.39595000      1.047152   -0.20022200   -0.36535800
Se    9.63123000    5.07369000    5.08888000     -1.370944   -1.50571600    0.43885900
Se    7.74772000    8.83282000    9.81813000      0.875178    0.72779700   -0.31860000
Se    8.26102000   10.59696000    0.16625000     -0.286595   -0.37907800    0.02693800
Se    7.46762000   14.68955000   11.40293000     -0.191541    0.75134700   -0.55509700
Se    7.13552000   19.89922000    1.99149000      0.667324    0.11303700    0.82874900
Se    9.50711000   20.71674000   12.29138000      0.629978    1.03695600   -0.60091400
Se   12.40936000    0.51804000   19.78441000      0.310007    0.35559500    0.45932700
Se   12.65907000    2.50988000   11.97060000     -0.314101   -0.22306400   -0.28839100
Se   11.09021000    8.64173000   17.85339000      0.918779    0.28374000    0.62411300
Se   11.03206000    9.87680000    7.07248000     -0.300528    0.82206600    0.10976300
Se   13.33754000   13.45885000    1.36474000     -0.362296    1.01792900    0.42177100
Se   12.17355000    8.72775000    9.53090000      0.071930   -0.13545100    0.55038000
Se   15.04005000   16.97914000    1.03472000     -0.068920   -0.04560900    0.05817600
Se   12.11105000   19.35141000   11.46697000      0.198646   -0.53572500    0.01278600
Se   20.22329000    3.07265000    4.05589000     -1.467516    1.99302600    0.45741100
Se   14.00581000    3.68634000   13.48732000     -0.196838    0.58647000    0.73085200
Se   16.30451000    5.36445000   16.08684000     -0.365760    0.37475100    0.10442300
Se   20.14329000    3.67909000   13.78442000      0.064920    0.58001400   -0.35043900
Se   19.39986000    9.66808000    0.90657000     -0.071484   -0.28533100   -0.54147400
Se   16.55533000   19.63495000    6.97156000     -0.035040   -0.47566700    0.63835000
Se   19.65463000   17.61168000    0.86079000     -0.279969   -0.24625500    0.26052200
Se   19.97431000   19.13174000    9.86995000     -0.220531   -0.58705500   -0.30190500
Se    3.21453000    0.57974000    4.52627000     -0.548556   -0.26069300    0.20354300
Se    2.76815000    5.24941000   12.06555000      0.060255    0.63368000   -0.88254900
Se    5.81931000   11.67113000    0.93847000     -0.258153    0.19804100   -0.30473100
Se    4.80111000   12.88139000   10.75577000      0.109601   -0.33108800   -0.07794600
Se    3.84894000   13.20575000    0.60485000      0.100711    0.07850400   -0.13634800
Se    2.98328000   17.16481000   10.92002000      0.902506    0.30346800   -0.58809700
Se    5.70948000   21.85560000   19.33017000     -0.313896   -0.60389400   -0.08342600
Se    5.11221000   19.98617000   11.87681000     -0.300657   -0.41538700   -0.20111600
Se   11.03244000    6.41419000    2.04461000     -0.060255   -0.09946300   -0.36119800
Se    7.74306000    3.06963000   11.05298000      0.863688    0.28535200   -0.03431200
Se   10.43419000   12.58645000   18.65103000     -0.009069    0.04652200    0.51922600
Se   10.54195000   11.14375000   11.71774000      0.361785   -0.04583600    0.10269500
Se   11.11676000   15.75019000    2.65103000      0.450664    0.50401300   -0.05167300
Se   12.28315000   15.68419000   12.98571000      0.498782   -0.46046200   -0.56867300
Se   11.00927000    0.17964000   17.95916000     -0.102425   -0.45884500   -0.40342000
Se    9.98155000   23.51102000   11.51859000      0.260958    0.06173200   -0.10332600
Se   11.92816000    3.97198000   17.00826000      0.190033    0.20412800    0.21411200
Se   17.84760000    8.09886000    8.98587000     -0.304369    0.64579000    0.72369600
Se   16.63731000    9.91306000    2.27623000     -0.387985   -0.21969800    1.06956700
Se   18.03241000   14.10776000   10.49245000      0.164477   -0.77855000    0.41517900
Se   18.86304000   14.82667000    1.97289000      0.525480   -0.14087700    0.48336400
Se   13.92665000   15.81303000    7.82782000      0.664337   -0.13093800    0.59198900
Se   17.97692000   22.77345000    0.85745000     -0.520438   -0.64645900   -0.05285000
Se   17.10033000    0.80663000   11.13839000      0.631297    0.13363700   -0.30699900
Se    0.03351000    2.89400000    0.77647000      0.038991   -0.11742400    0.55326000
Se   22.53154000    4.36015000   10.66324000     -0.578355    0.25831800   -0.54723300
Se   21.46789000    5.28786000    2.09523000      0.422204   -0.18048300    0.44611800
Se   20.44114000   11.64655000   12.20054000      0.653613   -0.09996400   -0.17119200
Se   22.83871000   14.46065000    3.96588000     -0.018156    0.54998500    0.40128200
Se   21.75351000   15.35226000   10.75598000     -0.764455    0.03138300    0.51614500
Se   23.47047000   22.78466000    2.35258000     -1.473514   -3.66081900   -0.99282100
Se   21.67210000    0.44136000   15.49543000      0.238180   -0.43506500   -0.44795000
Se    4.27017000    4.28431000    9.82948000     -0.733239    0.34710300    0.05453900
Se    4.23885000    6.21659000   18.46735000      0.801131   -0.24062700   -0.29937000
Se    4.01789000   12.03433000    8.11550000     -0.071963   -0.34566300    0.34577300
Se    4.09129000    7.20693000   15.43098000      0.946489   -0.26752500   -0.85017200
Se    6.11640000   20.05740000    5.92850000     -0.004927   -0.90769900    0.81674600
Se   21.92889000   15.25991000   19.29678000      0.303013    0.45133800   -0.45150500
Se    1.12098000   21.76712000   10.90964000     -0.249893    0.04122400   -0.18219100
Se    2.40228000   19.94544000   18.16077000     -0.056752   -0.24304700   -0.40350300
Se    7.66253000    3.16575000    7.67359000     -0.606177    0.36783800    0.25219800
Se    5.67582000    4.45061000   19.77535000     -0.476967   -0.09442000   -0.28661200
Se    6.76229000   10.27636000    6.22902000     -0.021554    0.47635900    0.02829200
Se    4.09850000    9.35642000   19.53112000     -0.240380    0.06704700   -0.23076400
Se    6.74487000   18.24290000    9.42311000     -0.553333   -0.01725800    0.84729300
Se    6.43043000   15.56266000   18.09767000     -0.515725    0.34566500    0.55799800
Se    9.76239000   20.65285000    8.39615000      0.301181   -0.82565800    0.24574900
Se    9.21483000    3.08244000    0.48205000      0.027653   -0.13057900   -0.61768700
Se   14.46569000    2.47994000    9.00083000     -0.056905    0.08467600   -0.08064100
Se    8.30957000    4.78194000   18.26966000     -0.136392    0.09898000   -0.21406200
Se   10.18783000    5.72762000    8.55561000     -0.093378   -0.60924000   -0.22986800
Se   17.69038000   12.36672000   16.00997000      1.043523    0.01863200    0.42137900
Se   13.45511000   19.04927000    7.73626000     -0.604951    0.17920200    1.05196700
Se   14.77119000   15.78576000   18.21728000     -0.574928   -0.08479700    1.04363300
Se   15.75097000   23.00676000    7.51038000      0.069962    0.80618000    0.23466500
Se   19.00888000    2.54479000   16.82236000     -0.085280   -0.79511200    0.49312100
Se   17.26555000    3.67034000   11.50599000      0.441993    0.28783000    0.86347900
Se   22.78822000    3.93096000   18.10926000      0.095875   -0.49180900   -0.72451100
Se   18.63420000    9.56750000   13.31223000      0.222899   -1.34855300   -0.56114800
Se   19.66174000   10.71283000   16.55036000      0.339097   -0.27488200   -0.16594100
Se   16.06934000   18.33571000   10.85076000     -0.560064    0.52149700   -0.29190000
Se   19.50427000   14.15254000   18.29257000     -0.946186   -0.69376000   -0.30035400
Se   18.62158000   23.03962000    7.44843000     -0.797479    0.06411900    0.66675300
Se   18.09966000   19.58933000    1.05411000     -0.001942    0.11485200    0.26951900
Se    4.76056000   22.28599000    9.20214000      0.002646    0.53302100   -0.40460600
Se    3.53787000    3.16101000    0.15842000     -0.431245    0.35750200    0.24183100
Se    6.89311000    6.70692000   10.28759000     -1.148766   -0.15781600   -0.11443000
Se    5.24931000    7.07914000    0.74000000     -0.971978    0.36620400   -0.63879200
Se    5.50136000   16.02770000    6.82490000      0.589897    0.55030700    0.76438200
Se    6.63673000   11.80523000   17.52766000      0.744574    0.46506700    0.29333400
Se    2.48699000   19.12021000    8.28146000      0.183700    0.00579400    0.14527600
Se   22.67506000   19.35311000    0.29546000      0.008498   -0.34668800    0.44240900
Se    9.06245000   23.43027000    7.38458000      0.246255    1.25582800    0.07222200
Se   12.07685000    4.28356000    2.07836000      0.800949    0.31205900   -0.24765100
Se   11.48321000    2.35255000    9.51407000     -0.460841   -0.61369000   -1.23296600
Se    8.59369000    6.65614000    0.78262000      0.210538    0.54638200   -0.08300700
Se   11.21642000   14.01410000    8.20356000     -0.173902   -0.71763200   -0.94639900
Se    8.73240000   14.02488000    0.59898000      0.226740   -0.37132700   -0.47888700
Se   13.51998000   22.48537000   10.68287000      0.138392    0.30919500   -0.64359100
Se   14.65474000   13.28897000   16.83498000      0.119068   -0.91657400   -0.11623700
Se   17.52227000    3.43400000    7.71546000      0.231554   -1.14848100    0.25834400
Se   17.53978000    4.90288000    1.91580000     -1.670049    1.16516100    0.23738600
Se   15.40318000    8.00881000    8.88515000     -0.208007   -0.86886700    0.24035300
Se   15.84467000    8.95702000   17.49940000      0.039879    0.39155500   -0.22600300
Se   14.43724000   13.45708000    8.47205000      0.386441    1.27492200    0.12210200
Se   15.78668000   12.38068000   19.72315000      0.821007    0.40869800   -0.43573600
Se   14.30368000   19.89344000    3.85205000      0.185780   -0.76986100   -0.89563700
Se   19.60268000   21.02058000   17.92341000     -0.252017    0.86567100    0.54063800
Se   21.70073000    1.29629000    7.44862000     -0.108219    0.70903600   -0.25867100
Se    0.41959000   23.48265000   15.90380000      0.202836    0.49727200   -0.01963200
Se   20.84874000    7.38039000    9.04405000     -0.163365    0.39349800    0.21481100
Se   23.07449000    7.58423000   16.89887000      0.083089   -0.00760000   -0.15498100
Se    0.06617000   10.87648000    7.92910000      0.296511    0.61888900   -0.32156800
Se   22.12281000    7.86993000   19.05142000     -0.368425    0.20844300   -0.36777700
Se   21.19688000   17.42373000    7.75642000     -0.812238    0.06100400    0.57172600
Se   19.13767000   17.75455000   18.48837000     -0.034334   -0.53024300   -0.81714400
Se    1.12123000   23.23507000    8.85221000     -0.018379   -1.00400900    0.17441000
Se    3.63195000    0.41437000   12.78398000      0.037670    0.06883500    1.02065700
Se    2.48910000    8.23201000    8.20691000     -0.711692   -0.21774800    0.15260100
Se    2.28827000    8.67369000   17.97707000      0.285703   -0.20777200    0.78528900
Se    0.62003000   16.25486000    8.43104000      0.734150   -0.17512200    0.30658300
Se    0.97518000   13.10656000   18.15345000      0.376588   -0.75249600   -0.34476900
Se    3.14994000   19.59584000    5.75984000     -0.099814    0.02972600    0.10352800
Se   23.07721000   19.41217000   16.60264000      0.124789   -0.81120200    0.20535800
Se    6.62834000   23.35667000    4.51658000      0.177648    0.70739900   -0.68661200
Se    6.28854000    0.92950000   17.63374000      0.264149   -0.23603500   -0.42044900
Se   11.33801000    6.43516000    4.86525000      1.098354    1.74787000   -0.15297300
Se    6.89926000    7.64251000   15.47360000     -1.147400    0.38929200    0.43068700
Se    8.02135000   15.12505000    7.66682000     -1.719110   -0.02744300    1.04657300
Se    8.42265000   18.99104000   13.34142000     -0.596189   -1.02657800   -0.21818300
Se    7.91107000   16.45582000    3.33306000     -0.282478   -0.38360400   -0.30998500
Se    9.39154000   16.49792000   15.04113000     -0.347556    0.40478500    1.02721300
Se   14.75850000   21.37489000    5.54405000     -0.203502    0.89939400   -0.10242000
Se   13.89107000   23.00131000   15.57817000      0.824983    0.25908400    1.00703400
Se   13.53994000    8.49287000    4.02312000     -1.672923   -0.58512600    0.24375800
Se    9.52305000    8.06967000   13.25341000     -0.451508   -0.06516700    2.06150700
Se   14.14512000   12.19256000    4.43456000     -0.388113    0.04952300    0.57888700
Se   15.01620000   15.34312000   14.12132000      0.330828    0.19003500    0.79129000
Se   12.23260000   19.00081000    4.42011000     -0.708540   -0.27713900   -0.03386400
Se   15.83826000   19.72059000   17.32481000     -0.127173    0.45346900    1.20995900
Se   18.14141000    1.95217000    4.29137000     -0.483820   -0.98683300    0.38495600
Se   19.09996000    0.89167000   18.65220000      0.312758    0.56164800   -1.16256300
Se   19.46477000    8.37943000    5.05543000      0.882436   -0.37983500    0.73612500
Se   19.76677000    5.85806000   16.81898000     -0.781009    0.51634000    0.13331100
Se   19.40354000   11.84651000    4.27188000      0.610827    0.47249400   -0.27015400
Se   17.08929000   12.86979000   12.42326000     -0.012463    0.24576500   -0.51798100
Se   19.39127000   18.56126000    4.42647000     -0.289918    0.07873400    0.52608100
Se   21.04263000   20.54720000   14.74797000     -1.030415    0.44835800   -1.05126300
Se    5.58688000    7.00596000    6.30122000     -0.107980   -0.58726000   -0.00299100
Se    3.13198000    3.15675000   16.77772000     -0.212543   -0.44495000   -1.41473900
Se    3.21960000    9.19199000    3.71653000     -0.626949    0.41302300   -0.11966500
Se    4.77441000   10.51590000   14.65918000      0.583574   -0.35307300   -0.63494200
Se    4.97411000   14.56602000    5.14152000     -0.480769   -0.94137300   -0.62226500
Se    1.64349000   17.14872000   18.53913000      2.430851   -1.87558100    0.26883800
Se    1.27436000   23.42609000    5.74882000      0.544220   -0.19166500   -0.93039300
Se    3.16534000   20.21151000   13.15072000      0.013860    0.25939800    0.21585300
Se   12.67691000    0.61313000    6.52959000     -0.176935    0.83978600   -0.54578700
Se    7.55545000    4.73451000   15.83936000     -0.326399    0.90322100    0.23228900
Se   12.23405000   11.93028000    6.87954000     -0.851260   -0.34209700    0.16968800
Se   11.32681000   14.24218000   16.98607000     -0.660731   -0.36860600   -0.30222900
Se   10.25481000   16.76904000    8.97188000     -0.326627   -1.59082100   -0.27991600
Se   11.19538000   20.13439000   18.73840000     -0.098033   -0.26163700   -0.01300500
Se    9.69100000   22.32482000    3.72293000      2.056151   -0.35458700    0.43358600
Se    8.27524000   20.76872000   18.83137000     -0.244634    0.86798200   -0.25134000
Se   15.20756000    5.19691000    5.34046000      0.065624   -0.40664200    0.41931300
Se   14.02961000    5.89527000   19.25342000      0.175853    1.06555400    0.14126300
Se   16.29201000   10.29887000    6.94022000     -0.250875    0.91149200   -0.55076100
Se   18.03017000    7.09174000   13.45727000     -0.001345    0.73655200    0.17124800
Se   17.07892000   14.13501000    5.37388000      0.027385    0.30917600    0.42180500
Se   12.98020000   18.44141000   15.92411000      0.208034   -1.12967700   -0.17051700
Se   15.25215000   23.61926000    4.03379000     -0.439470   -0.06972100   -0.05289300
Se   17.76012000    3.90619000   13.96415000     -0.419266   -0.14073200   -0.85455000
Se   22.08995000    5.36421000    6.18382000      1.840876   -1.15270600    0.24039100
Se   23.20848000    5.16945000   13.83503000     -0.410395    0.06897900    0.85605000
Se   17.48666000   10.57389000   10.15007000      0.056759   -0.41932200   -0.26868400
Se   22.00537000   14.15696000   15.17971000     -0.981574    0.53662800   -0.47583300
Se   17.76696000   16.31379000    8.68961000      0.405090   -0.31291500   -0.45444600
Se   22.58510000   16.69896000   15.50208000     -0.714651   -0.09907300    0.65281500
Se   20.93628000   22.92682000    8.15144000      0.627176   -0.64181600    0.78608700
Se   22.82112000   23.22836000   19.06187000      0.183769   -0.23533000    0.26912500
Se    4.27977000    3.21960000    7.34885000      0.478319   -0.53198400    0.19085500
Se    5.44798000    0.18883000   14.58393000     -1.051501    0.53995900    0.07699600
Se    3.82323000    4.82731000    3.18826000      1.014919    0.82902100    0.05459100
Se    4.25436000    8.42122000   11.17246000      0.440861   -0.18371900    0.03318100
Se    1.59489000   11.08845000    3.50826000      0.022284    0.26121400   -0.47464300
Se    4.42638000   14.30068000   15.07774000      0.621014   -0.27496700    0.29853600
Se    4.68778000   17.24631000    1.78724000     -1.307981   -0.75190500   -0.90219500
Se    3.31252000   16.82824000   13.26126000      2.101864    0.43746100   -0.61399900
Se   10.01517000    0.40563000    2.28083000     -0.034610    0.97262500   -0.48440400
Se   10.64276000    1.61490000   14.75554000     -0.255757   -0.98783600   -0.63852100
Se    9.90962000    9.13293000    3.49565000      0.124321    0.67149200    0.37394400
Se    8.84922000    8.83050000   16.87241000     -0.418722   -0.15400200   -0.23569600
Se    9.13485000   12.96756000    4.74789000      0.035845   -0.15410300   -0.29774700
Se   12.96415000   11.47798000   12.87147000     -0.640565   -1.24320400   -0.23070900
Se    9.62227000   18.82234000    2.22234000     -0.741239    0.95448100   -0.56205300
Se    8.96482000   22.66507000   15.26946000     -0.855922   -0.47553200    0.33413700
Se   18.68180000    5.13548000    8.80193000      0.069499    0.12877100    0.04891700
Se   14.77339000    1.28355000   16.88882000     -0.521852   -0.87542200   -0.72640600
Se   16.66958000    7.68011000    3.81208000      1.537927   -0.13213600    0.08049100
Se   12.83449000    7.60396000   14.55976000     -0.266287   -0.85197400    0.99861000
Se   17.28405000   12.23271000    1.75374000     -0.400164    0.65945900    0.18886900
Se   18.96395000   18.41806000   14.28965000     -0.265240   -0.36387500    0.26168100
Se   15.60750000   16.84929000    3.43273000     -0.158638    0.98622000   -0.10993400
Se   16.88415000   20.48781000   13.82469000      0.286723   -0.51225600    0.31911700
Se   22.28154000    2.05805000    4.11275000      1.782661   -0.52892100    0.26189600
Se   22.14168000    0.94519000   11.90906000      0.670767   -0.49209400    0.00359000
Se   23.65840000    7.97520000    5.22663000      0.094283    1.03097000    0.13595800
Se   21.93113000    7.07067000   12.99960000     -1.038037   -0.09168600   -0.30030800
Se    0.96537000   17.17678000    5.36481000      0.279994   -0.14365000    0.05179100
Se    1.32179000   11.96763000   14.69384000     -0.441661   -0.75084500    0.75759300
Se   22.59065000   20.87434000    6.08797000      0.059793   -0.11659200   -0.61844400
Se   19.81615000   21.02645000   11.43154000      0.774863    0.59688500   -1.07840500
Se    2.14033000    3.77635000    6.66327000     -0.216348    0.51707500   -0.79462800
Se    1.21664000    3.52339000   12.49330000      1.224744   -0.27381000    0.55826900
Se   21.64880000   11.35754000    4.83388000      0.530519   -0.43076900    0.35876500
Se    1.49337000    7.68551000   13.88108000      0.720720    0.61276400   -0.15868400
Se    1.48420000   15.24075000    1.84195000      0.200382   -0.83834100    0.05540600
Se    1.24339000   16.49238000   13.84885000     -1.913786   -0.68055400    1.07875700
Se    3.43080000   20.58091000    1.62440000      0.312333   -0.15839000    1.00803500
Se    5.69490000   17.72811000   17.37831000      0.183035   -0.66838800    0.55254400
Se   11.35128000    2.68397000    5.45249000     -0.078589   -0.66084000    0.99262500
Se    8.40536000    2.30480000   13.52137000     -0.336553    0.17768500   -0.38740600
Se    6.10308000    8.31323000    2.72532000      0.463493    0.01903400    1.15545400
Se    9.11161000   10.84640000   13.70704000     -0.211072    0.43297900   -0.72652300
Se    6.98881000   13.99361000    2.41139000      0.336068    0.77007500    0.28395100
Se    9.90360000   15.45901000   13.08301000     -0.310154   -0.68360400   -0.84701400
Se    6.92158000   22.92279000    9.96574000     -0.138048   -0.24074900   -0.12102400
Se    5.99166000   20.18929000   15.74583000     -0.341461   -0.64631900    1.39640700
Se   13.19430000    0.72407000    3.18987000      0.469815   -1.02732500   -0.66316500
Se    9.37892000    5.61473000   13.53873000      0.653778    0.05873000   -0.84758400
Se   13.32237000    9.47075000    1.40983000      0.326890    0.27713600   -0.22767000
Se   15.37447000   10.91650000   13.57190000      0.293161    0.03996600    0.17589100
Se   10.09021000   16.84646000    5.66756000     -0.001999    1.08883600   -0.18841100
Se   13.90222000   17.52058000   11.61892000     -0.356520    0.71450800    0.14041700
Se   14.88144000   21.32181000    0.87796000      0.138520   -0.15067900    0.47836400
Se   15.36577000   22.32789000   13.70290000     -0.373501    0.51623200    0.39007100
Se   18.71609000    5.66488000   19.50024000      0.427405   -0.00624500   -0.26363000
Se   14.95663000    5.74603000    9.91621000     -0.778858    1.00313800   -0.47647200
Se   20.54634000    8.35044000    2.45643000     -0.580546   -0.61771800    0.27535300
Se    2.70971000   12.44283000   12.90875000     -1.550047    0.34243500   -1.42401000
Se   21.24144000   17.57308000    3.55416000      0.284692   -0.23018600    0.27924600
Se   17.62617000   16.45543000   13.79816000      0.039741   -0.19694500    0.25540300
Se   19.73835000   22.10066000    3.60931000     -0.317824    0.10918900    0.52200100
Se   18.90840000    0.47403000   14.70253000      0.203994   -0.13889000    0.26328400
