384
23.00800000 23.00800000 19.32000000
Ge    6.08948000    5.28164000   10.70938000      0.020008   -0.59135200   -0.65568200
Ge    3.45708000    8.32578000    1.60442000     -0.951305    0.41060000   -0.22727800
Ge    1.77793000   10.57480000    7.75450000      0.277184   -0.52838600   -0.36155800
Ge    5.79846000   10.99210000   17.39461000      0.200782    0.18072900    0.73446300
Ge    5.13531000   15.29707000    9.82138000     -0.914031   -0.16469200   -1.09047100
Ge    7.67275000   17.82324000    1.48541000     -0.203431    0.19748700   -0.25319900
Ge    6.58930000   19.99914000    8.15550000      0.675226   -0.33199200   -0.30564700
Ge    4.61474000    2.01784000    0.35802000      0.917885    1.56259300   -0.08750600
Ge    9.12473000    6.20531000   11.10153000     -0.080468   -0.21383600    0.08272400
Ge   10.62987000    6.90579000    3.01578000      0.159387   -1.25754400   -1.07233100
Ge   12.04403000   13.22729000   10.56527000      0.445362   -0.04131700   -0.81674900
Ge   12.17357000   12.70785000   17.04019000     -0.371257   -1.65266000    1.08628200
Ge   10.06277000   16.84519000    7.24989000     -0.049709    0.87063500    0.15669500
Ge   14.49085000   17.08210000    0.85878000     -1.356080    0.46607000   -2.91063200
Ge   10.47126000    2.44472000    9.58279000     -0.046145    0.24038300    0.50103200
Ge   16.63886000   21.31778000   18.52361000     -0.937187   -0.99198800   -1.01711600
Ge   20.02247000    5.28690000   10.91264000     -0.712382    0.25948600   -0.00133800
Ge   18.26169000    8.19832000   18.09972000     -0.042262    1.18933900    0.64188600
Ge   21.92772000   14.12047000   10.04691000     -0.187330    0.38304300   -0.69639800
Ge   16.07927000   10.89425000   19.21544000     -0.162952    0.41988100   -0.17801400
Ge   14.33598000   17.40837000    7.77138000      0.077165    0.86653400   -0.11652600
Ge   19.12882000   14.61989000    0.70876000      0.425226    0.18620200    0.13576900
Ge   19.36247000    0.65961000    9.41056000      0.293326   -0.27193200    0.53385900
Ge   17.43939000    1.67308000   17.24783000      0.915349   -0.45086800    0.38730200
Ge    0.87521000    7.64697000   10.57702000     -0.028100   -0.52730800   -0.08103700
Ge   22.88409000    2.78258000    0.77800000     -1.870592   -0.26665700   -0.05288300
Ge    0.92043000   12.10127000   10.96060000      1.738307    0.28110100    1.21525300
Ge    0.43596000   11.18310000    0.90228000     -0.873171   -0.39369000   -1.09566000
Ge   22.51717000   15.42490000    7.57939000     -0.309989   -0.21528100   -0.71521500
Ge    0.80516000   15.36306000   16.22239000     -1.086383   -0.72955500    2.10963800
Ge   20.69403000   21.26960000    8.70539000     -0.366499    0.96902500    1.42612100
Ge    3.63131000   21.18722000    0.43366000     -0.100392   -0.11097000   -0.26275500
Ge    6.45403000    8.40349000    8.59830000     -1.066114    1.17471400    0.54948200
Ge    0.99549000    5.53227000   18.51985000      0.078187    1.21647400    0.54485900
Ge   22.18956000    7.80553000    5.71191000      0.598637   -0.01693300   -0.14514400
Ge    3.40881000   12.52958000   16.03410000      0.040498    0.43773600    0.76131100
Ge    5.46106000   15.82874000    3.66532000     -0.065389   -0.32974800    0.15765600
Ge    1.85557000   19.46900000   17.88390000      0.951537    0.17370700    0.02091000
Ge    4.47407000   18.78312000    9.42978000     -0.244925   -0.94932000   -0.27372900
Ge    2.54766000    0.94123000   15.82836000      0.080417   -0.75350900   -0.30561300
Ge    8.50717000    2.41695000    7.48666000     -0.860211   -0.35505800   -0.28815800
Ge    8.16664000    3.10269000   18.73302000     -0.151176    0.09257800    0.35591700
Ge    7.41956000   12.94133000    3.85026000     -0.028023   -0.06376100   -0.55332800
Ge    7.62363000    9.01682000    1.77219000      0.374794   -0.28812200   -0.56674000
Ge    5.26893000   16.82753000    6.53584000      0.635003   -0.90551600    0.02963000
Ge    9.66729000   15.36427000   18.60976000      1.015274    0.04224700    0.24658300
Ge   10.95566000   22.20939000    5.70511000      0.020794   -0.05746300    0.78533200
Ge   10.52332000   21.80700000   14.31705000     -0.490656   -0.04612200   -0.21986600
Ge   12.95877000    5.78368000    9.79863000     -0.403002   -0.25238100    0.75005100
Ge   13.81505000    6.75976000   18.32102000     -0.833687   -0.47403700   -0.91850900
Ge   13.05133000    9.12259000    8.41184000      0.313941    0.39215900   -0.16816700
Ge   15.36992000   13.26447000   15.33511000      0.121270    0.12212400   -0.20003200
Ge   14.11686000   17.19764000    3.76232000     -0.707171    0.25919900    0.98269600
Ge   13.72504000   19.39945000    1.60072000      0.219148   -0.07228100    0.51410700
Ge   15.53487000   21.45164000    9.40213000      0.140813   -0.14819800    0.39516900
Ge   16.64214000    1.65188000   14.27714000     -0.832101    0.18247200   -0.63748700
Ge   21.16635000    3.97290000    8.31494000      0.507486    0.00272100    0.21512300
Ge   21.10814000    5.36128000   18.33442000     -0.039032    0.24112700   -0.13309500
Ge   15.73702000   11.07808000    8.50865000     -0.131387   -0.64255900    0.04044400
Ge   18.97798000   15.08876000   17.32684000     -0.773007    0.46277200    0.40095500
Ge   18.83610000   16.40063000    3.91360000     -0.198060   -0.21252000   -0.35292300
Ge   21.01409000   17.09899000   16.61668000     -0.328431    0.77790700    0.01803200
Ge   22.32593000    1.63791000    4.11228000      0.303151    1.39578700    0.98829600
Ge   19.89688000   22.48389000    0.16214000     -0.727205    2.39602800   -1.61100300
Ge    5.41320000    3.13741000    7.04721000     -0.544644    0.05864000    0.29744500
Ge    2.63413000    4.85780000   14.44193000      0.137485    0.63932100   -0.20923700
Ge    2.57066000    4.88850000    4.40133000      0.097707    1.14716400    0.18757900
Ge    1.42578000    9.64566000   13.29679000     -0.082072   -0.23953700    0.71656500
Ge    2.03757000   14.79855000    3.69123000     -0.479271   -0.02696400    1.09208700
Ge    0.43764000   17.81862000   12.37025000      0.104219   -0.00205900    0.75021000
Ge    0.78942000    2.10933000    6.72540000      0.368813    0.37663900    0.20250100
Ge    5.24597000   16.77758000   16.56974000      0.035017   -0.42952000    0.08145500
Ge    9.17421000    3.24599000    3.61309000      0.626011    0.35973800   -0.61716600
Ge   10.15766000    1.73969000   16.61823000     -0.524765    0.53951600    1.06628000
Ge    8.56219000    8.79251000    5.39962000      1.013442   -0.14249600    0.65673700
Ge    8.93030000    8.78366000   14.10499000      0.763834    0.07852900    0.74514300
Ge   11.85811000   13.97843000    5.93513000     -0.116871   -0.18884600    0.08926000
Ge   10.36156000   13.29204000   13.69944000     -0.130637   -0.56859400    1.08490500
Ge    6.85693000   21.88257000    2.07358000      0.098106    0.08003900    0.44477100
Ge    8.40185000   18.95804000   18.00914000     -0.443450    0.50892300    0.26558100
Ge   14.07593000    1.81146000    6.87274000     -0.720028   -0.50622400   -0.12379900
Ge   11.06683000    5.26984000   14.10622000     -0.679555   -0.12616000    0.75568100
Ge   14.72255000    5.66468000    6.37675000      1.158444    0.52541900    0.37520700
Ge   13.05535000    9.72786000   14.22658000      1.188389   -0.15638700    0.20328900
Ge   15.50230000   12.82671000    4.99647000     -0.481501    1.00121400   -0.45657100
Ge   15.59173000   17.07418000   14.85306000     -0.720921    0.17645200    1.49290800
Ge   10.34216000   17.92938000    3.11780000      0.354207   -0.55953400    0.01103400
Ge   12.93455000   22.07814000   17.11199000     -0.097598    0.57971300   -0.11493700
Ge   17.30858000    5.11322000    3.96800000      0.727327   -0.13349500    0.88103000
Ge   21.27020000    1.79595000   12.06787000     -0.258388   -0.47939100    0.11393700
Ge   18.86689000    8.41980000    7.38603000     -0.206974    0.12829600    0.36850300
Ge   18.82602000   12.46260000   14.90138000      2.120330   -1.41708400    0.35370100
Ge    0.22033000   14.99030000    0.79809000     -1.722044    1.11461600    0.39289000
Ge   18.31744000   15.04413000   12.22287000     -0.278253    0.29009700   -0.08600300
Ge   21.53733000   20.40683000    5.07742000     -0.201892   -0.59143200   -0.48304200
Ge    0.25556000   20.39328000   15.32954000     -0.079658    0.18510600    0.12582500
Ge    5.33023000    2.85942000    3.26047000      1.165468   -0.78378200    1.06942600
Ge    5.71660000    4.65509000   15.97157000      0.269738   -0.36898400    0.41531400
Ge    3.48808000    9.46254000    4.54453000      1.139590   -0.91875100   -0.42317400
Ge    4.41368000    8.25926000   13.14572000     -0.083607   -0.36056000   -0.39890900
Ge    5.90356000   14.09754000    0.78706000      0.348449   -0.45015800   -0.10652300
Ge    3.44527000   13.61767000   13.85946000     -0.063097    0.84337600   -0.75007500
Ge    4.24988000    0.36936000    5.64253000      0.424874   -0.60835300    0.13588500
Ge    7.10708000   19.66426000   12.01993000      1.007452   -0.81025400    0.67891000
Ge   11.31255000    4.29901000    5.82157000     -0.470480    0.24206400   -0.12916500
Ge    7.68519000    1.18571000   13.95002000     -0.735891   -0.36245600   -0.83118500
Ge   11.99892000   10.72942000    3.57607000      0.209986   -0.08861900    0.27229300
Ge   13.66015000    6.94690000   14.14238000     -0.330155    1.08244900    0.38047700
Ge   11.02872000   13.80954000    1.27315000      0.551029    0.03202900   -0.33663000
Ge    9.29224000   16.62132000   11.20214000     -0.071848    0.38681600   -0.40751900
Ge   12.00463000   22.07252000    0.91433000     -1.580843    0.44480300    0.06552400
Ge   12.01331000   18.96105000   11.61048000     -0.836413    0.07456600    0.02310300
Ge   22.09814000   22.40489000   17.93330000      0.181254   -0.23457200   -0.13314000
Ge   14.63996000    4.87896000   12.60095000      0.011533   -0.61921400   -0.81334000
Ge   16.87576000    8.03136000    2.38331000     -0.420518   -0.03468200   -0.02121000
Ge   16.21622000    7.35964000    9.36353000     -0.066379   -0.15251200    0.99241900
Ge   17.20257000   11.36186000    3.00876000      0.309447    0.63873600    1.81386800
Ge   18.71096000   14.72827000    6.94943000      0.843780    0.45727400   -0.85172700
Ge   17.88140000   19.04168000    2.12855000     -0.270914   -0.33449800    0.16554400
Ge   16.03480000   19.81140000   12.71207000      0.191330   -0.17041200    0.07745800
Ge    1.53524000    0.34327000    2.09033000     -0.451502    0.07312200   -0.32015200
Ge   22.91452000    0.49909000   10.34441000      0.585480    0.03462200    0.70957600
Ge   19.97353000    5.18527000    3.91130000     -0.108067    1.02760400    0.86942700
Ge   21.22201000   10.77289000   12.32951000     -0.941829   -0.18642100    0.18688800
Ge   21.80145000   12.97315000    3.47391000     -0.559076   -0.47246800    0.56654300
Ge    0.11809000   18.83129000    9.87084000      0.512715    0.80292500   -0.51460300
Ge    3.08373000   20.46951000    3.51232000      0.092532   -0.24304300    0.77969000
Ge   20.13160000   17.98224000   12.54512000      0.129015    0.97985300   -0.44189000
Se    1.21491000    0.63733000   18.70263000     -0.410873   -0.97385200    0.30514100
Se    1.48262000    2.52904000   10.63524000     -0.130565   -0.66964000   -0.56301200
Se   22.70783000    5.38555000    1.87747000      2.104846   -0.98683200    0.22672500
Se   22.27389000    8.28909000   12.64879000      0.493583    0.03469100    0.03733900
Se    3.67977000   11.95722000   19.16306000      0.415844   -0.35447800   -0.65863300
Se    1.58879000   14.29856000   10.09813000     -0.024954   -0.53638900    0.70535600
Se    2.73549000   17.18634000    3.35546000      0.172922    0.80228700   -0.56927000
Se    1.66236000   21.02557000    9.36645000     -0.427113   -1.13874900    1.03356000
Se    7.41901000    1.97850000    1.71266000      0.217325    0.64917300   -0.32390300
Se    5.68850000    1.49354000   12.28409000      1.141016    0.32174800   -0.11950500
Se    8.49153000    6.67478000    2.03851000     -0.828900   -0.05061500    0.06925800
Se    9.87518000    8.30865000   12.05446000      0.645696   -0.10572800   -1.24179300
Se    7.52206000   11.78724000    0.17704000     -0.093134    0.23371700    0.07670500
Se    5.93053000   14.19388000   13.80032000     -0.689240    0.18797100   -0.57352800
Se    5.69661000   19.66526000    1.71181000     -1.235739    0.37405600    0.05334500
Se    9.53456000   19.31238000   10.52317000      0.042622   -1.22847700    0.29055400
Se   14.47762000    4.10463000    1.28787000      0.329199   -0.43236200    0.25848100
Se   12.11185000    0.98095000   10.71225000     -0.651753   -0.70689800    0.41383300
Se    9.40882000    8.54711000   18.65662000     -0.364318   -0.18423500    0.65624800
Se    9.78138000    9.39723000    8.90225000      0.591925   -0.09589100   -0.56174600
Se   12.78887000   12.18466000    0.07537000     -0.269396    0.69732200    0.07933600
Se   12.63653000   10.80448000   10.27662000      0.081430    0.50692300   -0.01214400
Se   15.88659000   14.55251000    0.93742000     -0.040374   -0.33181100   -0.39739100
Se   12.00596000   17.83881000    8.44014000     -0.630318    0.46194700    0.27008200
Se   16.99683000    2.99462000    2.61082000     -1.533198    0.20517200    0.06554000
Se   14.34378000    0.56094000   10.51029000      0.751121    0.48945900   -0.30107200
Se   18.21809000    5.72439000   18.40903000      0.422586   -0.70320700    0.63090200
Se   21.49978000    8.15681000   10.03836000     -0.178788    0.31907600   -0.05539300
Se   18.25474000   10.64146000    1.08474000      0.351220   -0.76364800   -1.47389600
Se   16.99603000   15.54847000    5.39267000     -0.296027    0.03184700    0.54187100
Se   20.00036000   17.13905000    0.76062000     -0.801729   -0.36862600   -0.20315600
Se   17.84057000   17.97276000   11.42286000      0.623078    0.21643900   -0.52562500
Se    3.77549000    4.27970000    2.08337000     -0.088409    1.55011300    0.27148900
Se    3.36677000    6.24825000   11.68800000     -1.220264    1.22620300   -0.19905900
Se    3.66626000   10.89730000    1.92698000      0.459275   -1.25173500    0.51380300
Se    5.50652000   13.69746000   11.36166000      0.324746   -1.89001300    1.61562800
Se    4.83459000   13.35411000    3.71168000      0.273260    1.09513900   -0.23537200
Se    3.47222000   16.67095000   10.60992000     -1.197206    1.45441300    0.29530400
Se    4.84573000    0.33357000   18.10577000     -0.242136   -0.85001100   -1.60184200
Se    6.19916000   21.05485000   10.34960000      0.000248    1.41969400   -0.51054200
Se   10.62789000    7.17920000    5.32127000      0.287963   -0.08518700    0.00986800
Se    7.34495000    3.08280000   10.73427000      0.239359   -0.34721400   -0.09106800
Se   10.35841000   11.06531000   16.73376000     -0.351764    0.65613900    0.03506100
Se    7.80986000   10.47955000    9.33212000     -0.853703   -0.34380400   -0.43094000
Se   10.31489000   18.17252000   19.31503000     -0.513006   -2.40421800    0.69683400
Se   12.01460000   16.18479000   11.11792000     -0.628765    0.17191800   -0.69933800
Se   13.71164000    0.67756000    1.42536000      1.284980    0.65443300   -0.31534500
Se   12.16101000   21.29043000   12.59153000      0.239401    0.35145900    0.38595100
Se   12.19039000    7.56833000    1.15820000      0.024881    0.44580600   -0.15554500
Se   19.29858000    7.64487000   11.78456000     -0.420228    0.13369800    0.24799500
Se   15.21431000    8.30824000    0.10857000      1.645398    0.70638500    0.97681200
Se   15.20869000   10.55916000   12.96537000     -0.475498   -0.15050000   -0.00097800
Se   18.55876000   13.84498000    3.00657000      0.921579    0.35317700   -0.18440800
Se   14.87111000   14.14894000    9.28990000     -0.024842    0.02295400    0.41568300
Se   17.10132000    0.41247000    0.14216000      0.664103    0.80621700    0.31999900
Se   14.43335000   19.57648000   10.80957000      0.411267    0.40676800   -1.01575300
Se   21.74801000    0.54538000    2.10401000     -0.647241   -0.70088500   -1.27759100
Se   22.50103000    5.19808000   11.33654000      0.251412   -0.23738800   -0.04047000
Se   20.69037000    6.27746000    1.77012000     -1.866594    0.55732000   -0.49351900
Se   22.30971000   11.61720000    9.48593000     -1.672967   -0.43062200   -0.73734000
Se   21.80348000   13.28415000   19.25791000     -0.474402   -0.07891500    0.69004600
Se   21.60381000   16.05824000   12.25642000      0.271921    0.82169000   -0.99526000
Se    1.36179000   20.87474000    1.81273000      0.097958    0.10004300   -0.41272100
Se   20.19986000   20.52661000   14.61673000      0.098523    0.46562100   -0.16505500
Se    4.00228000    4.61961000    8.76681000      0.904707    0.21531400   -0.43558100
Se    0.42608000    5.85877000   15.98680000      0.230655    0.90911200   -0.77359400
Se    3.93155000    9.51392000    8.64930000      0.875407    0.10516600    0.36631400
Se    2.02642000    9.27033000   17.34968000     -0.746314   -0.29403500   -0.12444700
Se    3.21928000   18.08729000    6.70922000     -0.249959    0.41520400    0.57599800
Se   22.94600000   17.94893000   15.03421000      0.077666   -0.30876900   -0.46739100
Se    4.50257000   22.66451000   13.36779000     -0.537912   -0.33044200   -0.92064300
Se    8.49003000   22.71350000   17.09366000      0.722623   -0.05401000   -0.22896900
Se    6.68006000    4.74471000    4.49173000     -0.219023   -0.04368800   -0.05812700
Se    6.17753000    4.47082000   18.59909000     -0.058550    0.00881100   -0.52236600
Se    6.56719000   10.18288000    5.59322000     -0.879929   -0.60510000   -0.78404700
Se    3.97976000    7.13628000   15.24095000     -0.318853   -1.49937100    0.41062300
Se    6.69167000   16.90267000    9.70370000      2.100967    1.55059400   -0.37321700
Se    7.40060000   16.02329000   18.20024000     -1.540250    0.74604500    0.09360600
Se    8.42378000   18.51486000    6.55508000     -0.054665    0.00181300    0.13891200
Se    6.77548000   21.80440000   18.82474000     -0.129633    0.00508000    0.11322800
Se   16.39656000    1.54169000    7.41771000      0.616799   -0.19063100   -0.47031400
Se   12.85568000    3.87175000   15.37612000      0.279698    0.47426200   -0.26901000
Se   13.34796000    8.00824000   10.66274000      0.555401   -0.32483300   -0.01730000
Se   13.85612000   11.27977000   16.25048000      0.549057   -0.72450800   -0.32169900
Se   13.67991000   15.72820000    6.30047000      0.451938   -1.26755000   -1.24538100
Se   13.88986000   16.25805000   17.11681000      0.779225    0.11841600   -0.35739600
Se   12.69760000   21.47473000    7.62365000     -0.723463   -0.05998200   -0.55467300
Se   18.86528000   20.34517000   17.67933000      0.081134    0.66053500    0.30452000
Se   18.87640000    3.09719000    9.48756000     -0.530126    0.14183400    0.00815600
Se   20.82835000    2.93077000   18.48435000     -0.252638   -0.72123800    0.55696100
Se   18.06036000   10.42582000    9.26375000      0.023688   -0.31820500    0.42263800
Se   17.52179000   11.46792000   16.57136000     -0.634769   -0.25043500    0.40860000
Se   15.09492000   16.39782000    9.91422000      0.440440   -0.56881100   -0.48584600
Se   17.51287000   15.79109000   14.95809000      1.145229   -0.69699100    0.24658500
Se   19.05499000   17.80137000    9.24688000     -0.503681   -0.59953900    0.25621000
Se   19.95297000   20.69124000    1.53931000      0.354158   -2.79244600   -0.05710100
Se    4.87756000    0.74612000    8.31283000     -0.103336    0.63810800   -0.90564900
Se    0.80977000    3.41839000   17.43409000     -0.202694   -0.61900700    0.29332600
Se    6.41416000    7.69799000   11.07050000      0.450781   -0.04022800   -0.72778300
Se    0.83667000    8.65312000    0.08181000      1.480068   -0.35511100    0.80548300
Se    4.54187000   14.28035000    7.73749000     -0.091971    0.61013800   -0.01121800
Se    5.12828000   14.07471000   17.43292000     -0.074828   -0.26106300   -0.73098000
Se    3.52602000   20.51058000   10.98872000     -1.245240    0.50632300   -0.05711100
Se    0.08365000   16.88740000   18.42907000      0.734680   -0.73680800    0.16181000
Se    9.02038000    0.17228000    9.56468000      0.092946    0.61473300    0.10378400
Se   11.39994000    4.40628000    2.48984000     -1.039062    0.73504700    0.48688800
Se   11.53765000    4.63932000   11.57918000      0.707431    0.51693100   -0.85802600
Se    5.54964000    8.15229000   18.97895000     -0.260113   -0.05170000    0.43695400
Se   10.57027000   13.33314000    8.15192000      0.881523   -0.12268100    0.24265700
Se    8.40875000   12.61844000   17.39478000      0.250978   -0.67468900    0.12373800
Se   10.06031000   21.54138000    8.24014000      0.906821   -0.13766300   -0.28567500
Se   11.91739000   14.97723000   16.74038000      0.097737    1.49556800   -0.43831500
Se   17.83018000   20.10298000    8.33644000      0.119453    0.66798300   -0.03913800
Se   14.90205000    4.50944000   18.33727000      0.225795   -0.50417000    0.85670700
Se   15.11943000    4.76025000    9.80612000      0.238881   -0.00888500    0.06045100
Se   11.78218000    9.59155000   19.02474000     -0.561073   -0.38319000    0.68042600
Se   16.91440000   12.37779000   10.34486000     -0.190779    0.28318300   -0.19949700
Se   16.79919000   13.56682000   17.91951000      0.092961   -0.47346200   -0.07036000
Se   15.53620000   18.76042000    5.58921000      0.184361   -0.00026200    0.49865000
Se   15.95726000   20.74237000    1.55357000     -0.068744   -0.16623000    0.38628300
Se   21.78885000    1.11617000    8.25519000     -0.392276   -0.73080300   -0.03626800
Se   22.93641000    0.37893000   15.74624000     -0.460003    0.20091600   -0.61484900
Se   20.12948000    6.25122000    8.34828000     -0.236502   -0.17304500   -0.14975200
Se   20.85172000    8.57296000   18.87155000     -0.268895    0.51982500   -0.52572500
Se   21.19443000    9.30463000    7.55865000      0.427271    0.41643100   -0.21356500
Se   21.44548000   10.45386000   17.42981000     -0.048334   -0.83096300    0.16248800
Se   20.29167000   16.55895000    5.88378000      0.366020   -0.76556600    1.37887900
Se   17.99214000   17.82026000   18.66210000      0.707801   -0.09822600    0.46652100
Se    2.36599000    1.21146000    8.69118000     -0.462640    0.25272800    0.54886400
Se    3.49702000    3.31022000   16.26177000      0.460237    0.56545200   -0.03953700
Se    1.40346000    8.01194000    7.21328000     -0.955272    0.20216800    0.29861100
Se   22.95717000    8.79846000   16.11288000      0.471458    0.59094000   -0.04092000
Se    1.43376000   15.96060000    6.23205000      0.406997   -0.05598400    0.16080200
Se    1.44495000   13.29940000   17.44366000     -0.120760   -0.30677300   -0.75802300
Se    1.11485000   18.97089000    4.54759000      0.542986   -0.79968300    0.15132600
Se    2.86096000   20.21697000   15.71557000     -1.237205   -0.32711500    0.73778000
Se    8.20584000    0.67649000    5.14427000     -0.529757   -0.16246800    0.95958000
Se   11.92831000    1.56094000   18.22903000      0.335527   -1.67044900    0.20640100
Se    7.49616000    6.75965000    7.06100000      0.042389   -0.05759100   -0.43218000
Se    7.41693000    7.04377000   14.79366000     -0.137513   -0.27244100   -0.08519800
Se    7.84971000   13.66876000    6.19884000      0.717765    0.82992500   -0.96971500
Se    7.91114000   16.92940000   14.42509000      0.415598    0.03370700    0.10368800
Se    4.78856000   20.56226000    6.59920000     -0.366751   -0.47451000   -0.54464900
Se    8.87968000   15.03225000   16.04725000     -0.360661    0.20464900   -1.19015300
Se   14.21816000   20.71065000    5.48786000      0.276127    0.30368200    0.24466600
Se   15.16014000    1.42934000   16.35704000      0.079455    0.05860900   -0.33175900
Se   11.97608000    6.18518000    7.68989000      0.396691   -0.03747500   -0.27656300
Se   11.25589000    7.46970000   15.41183000      0.239268   -0.17737100    0.00383000
Se   13.78683000   11.25502000    5.96339000     -0.721118   -0.76653500   -0.82114600
Se   13.63884000   13.19286000   13.13217000     -0.042727    0.29012400   -0.09055800
Se   10.26525000   15.79702000    5.16260000     -0.055710   -0.17696000   -0.26100200
Se   12.04725000   19.73864000   19.07885000      1.800235    0.73209500   -0.42287800
Se   20.54635000    2.52814000    6.41263000     -0.501829   -0.30054700   -1.42474700
Se   19.26735000   22.53210000   16.13369000     -0.371584   -0.20692000    0.84688700
Se   17.42203000    4.63547000    6.46904000     -0.778523    0.23812000   -0.69339500
Se   17.76400000    6.53455000   16.25842000      0.461515   -0.06250600   -1.25053000
Se   20.05561000   10.43612000    4.13284000      0.426297    0.69218600   -0.10937500
Se   17.29297000   13.00426000   13.31536000     -1.464201   -0.20971800   -1.12003600
Se   18.54544000   19.71525000    4.72252000      0.034903    0.31523100   -0.58061800
Se   17.31185000   22.26937000   13.57638000     -0.366896    0.72518100    2.19785400
Se    3.50637000    6.57761000    7.02336000     -0.008237   -0.65276900   -0.06688600
Se    4.40621000    4.17720000   12.01006000     -0.514116   -0.24034500    1.12423100
Se    1.84331000    7.85728000    3.83978000     -0.253737   -0.08561600   -0.69237600
Se    4.02054000   10.20933000   15.18702000     -0.396477    0.70811000    0.78270100
Se    6.32562000   12.13454000    6.84378000     -1.080334   -0.02530000    1.27381200
Se    4.21360000   17.88092000   18.57151000     -0.020337   -0.00124200   -0.62434700
Se    2.29055000   21.81212000    6.19100000      0.467366   -0.17832500   -0.20613300
Se    5.28050000   22.18684000   15.50581000      0.611602   -0.30032200    0.45762000
Se   10.95951000    2.04224000    7.22427000      0.752857   -0.34471100   -0.78921300
Se   10.92306000    4.25858000   16.69626000     -0.523407   -0.05070700    0.11174500
Se   10.10840000   10.33678000    6.63916000     -0.055681   -0.48845700    0.53104900
Se    7.48440000   10.79235000   14.06626000     -0.288988    0.37531500    0.18707600
Se    9.08423000   15.10724000    8.68586000     -0.511250    0.82732500    0.86768600
Se   11.21315000   18.33543000   16.08480000      0.160886   -0.60060500   -0.49213500
Se    8.15472000   18.92143000    3.67150000     -0.102428    0.26812500    0.58405900
Se   10.20640000   20.62131000   16.80648000     -0.221314    1.62250100    0.09767900
Se   13.67130000    3.78779000    5.18144000      0.183027   -0.67890200   -0.40907600
Se   18.42618000    3.14981000   14.76236000     -0.248558   -0.33456400   -0.10603100
Se   15.90345000    8.03769000    7.13003000     -0.533937    0.21691800   -0.46832200
Se   16.20495000    8.64760000   14.17310000     -0.119386    0.74476600    0.29521900
Se   16.99012000   12.19662000    6.66629000      1.018808   -0.05185000    0.69126500
Se   15.78703000   18.95456000   16.55391000     -0.360763    0.30143000   -0.69976900
Se   15.65816000    0.00633000    5.62208000      0.003400    0.60775800    0.47421500
Se   18.78220000    2.64645000   12.05079000      0.459406    0.32581400    0.37748400
Se    0.68003000    4.58158000    7.44123000     -0.523992   -0.21477600   -0.39757600
Se   22.90537000    3.42712000   12.98926000     -0.193687    0.27697700    0.13965600
Se   20.06254000   12.54009000    6.77335000     -0.438562    0.30514300    0.06796500
Se   20.80845000   13.51643000   16.31137000     -0.637186   -0.98624900   -0.01964100
Se   22.34733000   13.00593000    6.26820000     -0.102385    0.61345700   -0.20634900
Se   19.26168000   18.27389000   14.84418000     -0.065822    0.13002000    0.03601100
Se   21.86490000   19.54205000    7.80426000      0.613254   -1.36534300   -0.94822200
Se   22.31521000   19.60044000   17.70734000     -0.118749    1.55741700    0.03857200
Se    3.14303000    2.64681000    5.53048000      0.305992    0.20723900    0.10215200
Se    7.32192000    2.12645000   16.18475000     -0.542467    0.79029400    0.20104500
Se    2.31806000    3.19587000    0.51673000      0.740632    0.34206900   -0.40384800
Se    2.24298000    9.77980000   10.76708000      0.348367    0.91710900    0.11677200
Se    1.04035000   11.94114000    3.05248000      0.147743    0.43527200    0.86256800
Se    2.26009000   15.83381000   14.64309000      2.446442    0.16294200   -2.01185500
Se    3.94444000   16.00960000    0.94009000      0.727080    1.37864300    0.26609500
Se    4.84811000   19.08406000   13.13297000      0.461460    0.01434200    0.85767300
Se   10.54391000    1.06219000    3.59964000     -0.929837   -0.11836600   -0.31808600
Se   10.71366000    1.41982000   14.37082000      0.738116   -0.43418500   -1.30608400
Se    9.42762000    9.98270000    3.48434000     -0.101297    0.26428400   -0.69728300
Se    7.29216000    8.75783000   17.49818000      0.100438   -0.13246800   -1.07802500
Se   10.55460000   12.82962000    3.44823000      0.420048    0.17354600   -0.05190900
Se    9.38411000   13.40130000   11.49832000     -0.181499    0.12318600   -0.26854400
Se    8.74545000   20.72986000    0.76123000      0.596356   -0.15542100   -0.17786300
Se    9.66639000   18.68026000   14.27491000     -0.559800   -0.66159600   -0.44095300
Se   18.81262000   22.16620000    7.31549000     -0.271510   -0.20456300   -0.66545200
Se   14.57280000    2.31643000   12.62241000      0.864658    0.44474100    0.80144500
Se   15.28529000    6.41025000    3.64957000     -0.346147    0.48774400   -0.20351600
Se   15.34844000    6.02066000   15.85288000     -0.755765   -0.42792600    0.01347200
Se   15.20716000   12.52567000    2.08055000     -0.612030   -0.24902000   -0.81678200
Se   14.96035000   17.07115000   12.54315000     -0.200802   -0.04630800    0.80438400
Se   16.19360000   16.78362000    2.33126000      2.198381   -0.08496200    1.82995000
Se   14.12418000   20.17501000   15.00956000     -0.099033   -0.26935300   -0.06459800
Se    0.18007000   22.46949000    5.08025000     -0.204460   -0.16368100   -0.20875200
Se   21.63188000   22.75183000   13.58741000      0.477908    0.99721000    0.30582500
Se   19.74361000    2.82056000    3.79338000      0.024451   -0.72363000    0.19412500
Se   19.46206000   10.11812000   14.16858000      0.430222    0.92321600   -0.12404100
Se    2.64701000   11.35462000    5.51693000     -0.525527    0.93265400    0.80988200
Se   21.60898000   15.30617000   14.90079000      0.032818   -0.89702200    0.19316800
Se   22.30261000   18.81623000    3.04305000     -0.250392    0.39848300    0.48112600
Se   21.88239000   19.95770000   11.84371000     -0.397374   -0.66095300    0.09774200
Se   22.79896000    5.03643000    5.12549000      0.304606   -0.03828400    0.66395600
Se   21.26215000    4.95316000   15.86673000     -0.391951    0.34266700   -0.70087600
Se   21.47809000    9.65042000    2.39517000      0.178341   -0.13317600   -0.25765600
Se    0.17851000   11.84804000   13.51535000      0.339985    0.50232500   -0.34203000
Se    2.39568000   14.25392000    1.19133000      0.156507   -1.70379900    0.05721600
Se    2.44472000    0.88904000   13.20673000     -0.150410   -0.18957000    0.40276800
Se    4.12453000    0.35863000    2.01851000      0.196471   -1.14056400    1.37107600
Se    6.27886000   19.80725000   15.06711000     -0.859511   -0.50147300   -0.23422500
Se    8.73563000    5.12992000    8.13706000      0.319791   -0.40380000    0.22941600
Se    7.78907000    5.31024000   13.10147000      0.090953    0.27261100    0.53310500
Se    5.04341000    6.55437000    4.92868000     -0.125145   -0.42399500   -0.60954000
Se    7.66650000   11.54308000   11.88230000      0.418262   -0.17792300    0.60171100
Se    7.90964000   15.33265000    2.40150000     -0.452100   -0.34853100    0.09725400
Se   12.01130000   15.17083000   13.28359000      0.580697   -0.21079100    0.53269800
Se    7.08333000   22.62443000    7.16815000     -0.080958    0.01835000   -0.27237700
Se    8.20989000   21.87064000   13.22240000      0.297131    0.17615600    0.10527800
Se   12.87713000    1.04405000    3.56483000      0.798364   -0.06699400    0.36152100
Se    9.11166000    2.64545000   12.67900000      0.359941   -0.13881300   -0.34773000
Se   14.80070000    9.61837000    4.32295000     -0.076507    0.25000500    0.01928800
Se   11.16779000   10.69854000   13.27253000     -0.861380    0.90121800   -0.17965900
Se   12.54194000   16.13073000    1.89249000     -0.740556   -0.76536100    0.35901700
Se   12.80511000   17.95982000   14.02299000      0.721886    0.21004500    0.45257100
Se   12.06273000   19.57518000    3.81486000     -0.015345    0.49466200   -0.23836800
Se   13.44397000    0.07850000   14.70607000      0.132117   -0.76936300    0.58918500
Se   18.51625000    3.19445000    0.86174000      0.613539    0.16342300   -0.46609900
Se   16.96805000    7.29619000   12.48673000      0.018428   -0.69111600   -0.61310100
Se   18.92181000    8.48405000    4.88981000     -0.405776   -0.59918900   -0.34697200
Se   20.18987000   13.49943000   11.82111000      0.229077   -1.42977700    0.57129400
Se   22.37467000   15.34040000    3.33323000      0.535551    0.52043800   -1.05052800
Se   18.88318000   15.26047000    9.33160000      0.012142    0.36458500   -0.07062700
Se   19.75015000   21.65684000    3.58322000     -0.350982    0.62858300    1.61906500
Se   17.58493000   21.86054000   11.41741000     -0.204993   -0.33002400   -2.72468300
