384
23.00800000 23.00800000 19.32000000
Ge    5.78843000    5.15038000   10.63483000      0.846012   -0.78599200   -0.30779600
Ge    3.56552000    8.39810000    1.72418000      0.307314    0.23505000   -0.21340000
Ge    1.86315000    9.81589000    7.93385000      0.357612    0.40815700   -0.12215100
Ge    6.33139000   11.39192000   17.63221000     -0.934867    0.48598100    0.34040000
Ge    5.06266000   15.32605000    9.94693000     -0.608964   -0.53545500   -0.79210000
Ge    7.42332000   18.90005000    1.81660000      0.715134   -0.48456600   -0.18893000
Ge    6.27833000   20.11393000    8.18484000      1.476907    0.27271200   -0.45365300
Ge    5.21392000    2.80121000    0.52338000      0.188579    0.23936800   -0.29621700
Ge    8.59207000    6.44470000   10.97763000      0.181737   -0.86724500    0.31002800
Ge   10.26581000    7.04138000    2.52855000      0.469906   -0.16633800   -0.22363100
Ge   12.62341000   13.16134000   10.35699000     -0.066096    0.31819900   -0.81763600
Ge   12.13367000   12.14635000   16.95937000     -0.767741    0.02418000    0.70182400
Ge    9.93320000   17.08691000    7.21921000      0.280034    1.14806800    1.55231200
Ge   13.98731000   17.88387000   19.23639000      0.819504   -0.51535000   -1.15928000
Ge   10.81023000    2.74948000    9.83779000      0.276018    0.60107900   -0.25051800
Ge   16.10118000   21.62691000   19.07590000     -1.109290   -0.35857600   -0.12603300
Ge   19.34637000    5.26134000   10.85266000      0.085167   -0.32853400   -0.35984500
Ge   18.16686000    8.28658000   18.24854000     -0.633048    0.67053500    0.84330200
Ge   21.10367000   14.45511000    9.42918000      0.244708    0.15480700    0.42559300
Ge   15.80119000   10.90693000   19.26905000      0.566863   -0.17966100    0.14351900
Ge   14.22797000   17.41681000    7.60456000     -1.025595    0.53052400   -2.11906800
Ge   19.50999000   14.70598000    0.23913000      0.891643   -0.39947200    0.58196500
Ge   19.33012000    0.87800000    9.54369000      0.153938    0.00990400   -0.01029300
Ge   17.44147000    2.04300000   17.21348000      0.892052   -0.81238700    0.36510300
Ge    0.67642000    7.84802000   10.40162000     -0.424228    0.29632500    0.07199500
Ge   22.39549000    1.91671000    1.97780000     -0.454974   -0.02883300    0.17723400
Ge    0.69970000   12.39725000   11.01493000     -0.893854   -1.85198000   -0.09141400
Ge   22.62877000   11.06690000    1.18167000     -0.467443   -0.43422800    0.05396900
Ge   22.71545000   16.30150000    7.79479000     -0.713953   -0.35926700   -0.31432400
Ge    1.00867000   14.61652000   16.26781000     -0.222038    1.21600300    0.27087600
Ge   20.92933000   21.42623000    8.26285000      0.324793    1.10354800    0.76832300
Ge    3.78699000   21.21391000    0.63973000     -0.581757   -0.41248900    0.21724200
Ge    6.30798000    8.40704000    8.16320000     -0.829457   -0.02297700    0.59647800
Ge    1.08906000    6.25311000   17.76197000      0.309650    0.18585600    0.16959000
Ge   22.82617000    7.70874000    5.18753000     -0.151662    0.22851000    0.24216300
Ge    3.34647000   12.51857000   15.72312000     -0.399343   -0.07253700    0.64345100
Ge    6.27635000   15.48223000    4.39721000     -1.188263   -0.13660400    1.56115200
Ge    2.52509000   19.27830000   18.19323000     -0.449544   -0.10151000   -0.63649600
Ge    4.54278000   18.93519000    9.51669000     -0.543999   -1.93971600   -0.31642800
Ge    2.36781000    0.66993000   15.94919000      0.000509   -0.54981400   -0.32598800
Ge    8.48150000    1.74087000    7.75367000      0.016588    0.34234200   -0.38238700
Ge    7.84164000    3.56078000   18.09867000      0.544639   -0.26353200    0.59139300
Ge    7.43703000   12.77971000    2.98400000     -0.456143    0.23020800    0.17055600
Ge    7.07414000    8.98536000    1.91251000      0.251153    0.19218700   -0.66807400
Ge    5.64169000   16.91965000    6.75187000     -0.360459   -0.64767700    0.18845300
Ge   10.44447000   14.49911000   18.52946000     -0.477367    0.87509100    0.99228700
Ge   10.88981000   22.42400000    6.06379000      0.411504   -0.31908800    0.31113700
Ge    9.99604000   22.36668000   14.29105000      0.752939    0.08798700    0.44922700
Ge   13.13908000    5.63622000   10.23086000     -0.318424    0.31932200   -0.07773700
Ge   13.24639000    6.51759000   18.02253000      1.148358    1.60006900    0.58848700
Ge   13.48782000    8.23349000    7.94394000      0.524231    0.29566400    0.31912600
Ge   15.11643000   13.30792000   14.89743000      0.067557    0.46028000    1.37965000
Ge   13.86337000   17.28048000    3.99362000      0.248945    0.22323600    0.26851300
Ge   14.48472000   19.69825000    1.98158000     -0.404287    0.01997400    1.13962000
Ge   15.45926000   21.90425000    9.32423000     -0.508572   -0.70344800    0.60532400
Ge   16.30625000    1.36093000   14.15780000     -0.681350    0.69517400    0.11710400
Ge   21.01854000    3.39451000    8.24980000      0.340405    0.15095300   -0.08840100
Ge   21.04385000    5.44521000   17.89038000      1.312881    0.07051600   -0.27522000
Ge   15.64698000   10.63003000    8.91859000      0.173345   -0.69041400   -1.05546500
Ge   18.29478000   14.73963000   17.32772000      0.647352    0.36046200   -0.35772000
Ge   18.41357000   16.26638000    3.47986000      0.069024   -0.14865000    0.67009500
Ge   20.64070000   17.66521000   17.34302000      0.396454    0.66671600   -0.17034100
Ge   21.91497000    2.44453000    4.72659000     -0.024258   -0.44973000   -0.33004200
Ge   19.45978000    0.35834000   19.00835000      0.541072    0.11665400   -0.00116000
Ge    5.44710000    3.34103000    7.32717000     -0.324791   -0.19369200    0.67213900
Ge    2.27630000    4.93239000   14.29208000      0.247207    0.25938800    0.33728300
Ge    2.65672000    6.06306000    4.07219000     -0.642292   -0.01020000   -0.88794200
Ge    1.25722000    9.82870000   13.71381000     -0.764238    0.30951900   -0.71454800
Ge    1.89905000   14.38038000    3.39849000      0.122321   -0.17962800    0.15447200
Ge    0.70101000   17.55992000   12.33472000     -0.731700    0.06824500   -0.44834000
Ge    1.25310000    2.10834000    6.78667000     -0.453543   -0.32098100   -0.47319700
Ge    5.17475000   16.23087000   15.72908000     -0.176698   -0.38955600    0.43833000
Ge    9.49532000    3.23255000    3.22162000     -0.661598    0.07491500    0.27018700
Ge   10.22828000    2.23723000   17.17279000     -0.138668    0.06876900   -0.27011600
Ge    9.17547000    8.91634000    5.29440000      0.035028   -0.37219600    0.27155000
Ge    9.25418000    9.02755000   14.04297000      0.182084   -0.84168700    0.17182600
Ge   11.85526000   14.10255000    5.49563000     -0.628501   -0.35482100    0.53244200
Ge   10.55058000   13.78103000   13.98797000     -1.464482   -1.11705200    0.79506300
Ge    6.91536000   21.81330000    1.42364000      0.100570    0.43360200    0.49666100
Ge    8.30252000   18.62772000   18.27870000      0.510539   -0.50299000    0.39806800
Ge   14.21370000    2.06387000    7.33429000      0.052027   -0.10178400   -0.77491300
Ge   10.43530000    5.15119000   15.26591000      0.743818    0.40734500   -0.03689800
Ge   14.63159000    5.62136000    5.73008000      0.652103    0.20021600    0.31158300
Ge   12.88521000    9.93429000   14.18506000      0.682755   -0.47310200   -0.22084900
Ge   16.04308000   13.19581000    5.40003000     -0.393715   -0.13132700   -0.78616300
Ge   16.41142000   15.72370000   14.69030000     -2.621498    0.97405100    0.44365800
Ge   10.18499000   18.19261000    3.30186000      0.087576   -0.11040300   -0.27018900
Ge   12.73660000   21.59152000   16.90077000     -0.142471    0.77824000   -0.21189600
Ge   17.36428000    4.77766000    3.73634000     -0.245633   -0.54389800    0.05999400
Ge   20.90630000    1.67230000   12.22819000      0.227675   -0.19129500   -0.02524200
Ge   18.93732000    8.13999000    7.00647000     -0.640671    0.60880200    0.19162100
Ge   18.22827000   11.56439000   14.97886000      1.284963   -0.18095300    1.02148000
Ge    0.55791000   15.86164000    0.92578000      0.145110   -0.00527200   -0.03587800
Ge   18.45560000   14.64725000   12.47405000     -0.425941    1.19375800   -0.88228700
Ge   22.46730000   20.19401000    4.65913000     -0.197303   -0.30113000   -0.18926100
Ge   22.81880000   20.06355000   15.08102000      0.769076    0.00987400    0.84607500
Ge    5.83653000    2.55381000    3.82095000      0.531860    0.22832600   -0.48781400
Ge    5.42916000    4.30955000   15.83178000     -0.255192    0.25772400    0.21373400
Ge    4.14557000    9.27787000    4.99365000      0.056436   -0.72803300   -0.21811800
Ge    4.68362000    7.75951000   13.71936000     -0.636991    1.20621100   -1.56624900
Ge    5.49845000   13.74699000    0.94192000      0.179920    1.20698400   -0.13244000
Ge    2.88510000   13.02637000   13.12415000      0.850193    0.43980700    0.74148300
Ge    4.76225000    0.58024000    5.60749000     -0.527665   -0.88642200    0.52721800
Ge    7.55654000   19.96232000   11.89036000     -0.608608    0.10510000   -0.03706800
Ge   11.12328000    3.92668000    6.05763000     -0.716001    0.75024600   -0.23759400
Ge    7.48741000    0.98644000   13.62408000      0.001871    0.43574000   -0.68635300
Ge   11.92352000   10.22946000    4.63444000      0.312954    0.02805400   -0.27244800
Ge   14.02111000    7.47865000   14.12411000     -0.146190   -0.25080200    0.15508400
Ge   12.15268000   14.23943000    1.16015000     -0.071523    0.00418600   -1.70626600
Ge    9.19454000   16.27144000   11.47130000     -0.156000    0.52658100   -0.64419400
Ge   11.59629000   22.38276000    1.02522000     -0.413729   -0.78320800    0.93568900
Ge   11.75574000   18.96578000   11.62622000     -0.185615    0.59945300    0.14088100
Ge   22.57431000   22.82758000   18.28872000      0.411204   -1.02290500    0.35636200
Ge   15.31070000    4.84901000   12.93236000     -0.334993   -0.42997100    0.25656400
Ge   17.19328000    8.12988000    2.36522000     -1.047272    0.74726600   -0.14037900
Ge   16.69957000    7.68373000   10.15601000     -0.642171   -1.03014800   -0.87544800
Ge   17.88481000   11.99142000    3.23819000     -1.053604   -0.59147800    0.74201000
Ge   19.23300000   15.20262000    6.81183000     -1.237924   -1.18331300   -0.32563900
Ge   17.43378000   19.59447000    2.64848000     -1.222118   -0.47841800   -0.54553500
Ge   15.65311000   19.04043000   12.79511000      0.601997   -0.22129200   -0.80026300
Ge    1.47727000    0.04909000    2.41157000     -0.533008    0.06006800   -0.27585100
Ge   22.42287000   22.40002000   10.88232000      0.713722    1.70327600   -0.04908800
Ge   19.97786000    5.67596000    4.16395000      0.540124   -1.73655600    0.22948200
Ge   20.25704000   10.96026000   11.63266000      0.465708    0.45958800    0.81986200
Ge   21.78817000   13.24298000    3.99402000     -0.642782    0.31007500    0.08423000
Ge    0.83395000   18.62907000    8.54976000      0.351012    0.48427700    0.49765000
Ge    2.99044000   20.21385000    4.21582000     -0.282072    0.18745800   -0.29516900
Ge   20.27852000   18.71993000   12.30137000     -0.553002   -1.19852600   -0.55570900
Se    2.20757000   22.54957000   18.30821000     -0.993480    0.50349000    0.64372600
Se    0.99238000    2.23369000   11.37487000      0.616576    0.05481400    0.62770700
Se    0.19685000    4.64286000    1.70414000     -0.069545    0.07457300    0.64227400
Se   22.37335000    8.30990000   12.38960000      0.200283    0.10136700    0.12581300
Se    4.23850000   11.76130000    0.36748000     -0.189969   -0.99286100   -0.58798900
Se    1.70293000   14.35862000   11.38105000      0.656752    2.10628600   -0.54954300
Se    2.55932000   17.39590000    1.81546000      0.296241    0.20724900    0.06139000
Se    1.69974000   21.26884000    9.48072000      0.073220   -0.55404200    0.39936800
Se    7.67320000    2.43518000    1.34453000     -0.303311   -0.26192500   -0.39746000
Se    5.72323000    1.78942000   11.80995000      0.584817   -0.34402900    0.45745300
Se    7.63668000    6.71968000    2.85647000      0.495893   -0.05236800    0.07365100
Se   10.11467000    8.22571000   11.66250000     -0.042688    0.42257500   -0.27045200
Se    7.85725000   12.16597000    0.65827000      0.122472    0.16049600   -0.78735000
Se    5.45206000   13.87057000   13.21053000     -0.783287   -0.49039700   -0.48132800
Se    5.20509000   19.50361000    2.50737000     -0.148019    0.64116600   -0.58629000
Se    9.21419000   19.08495000   10.34502000      0.871768   -0.93155100   -0.06734900
Se   14.01798000    4.32040000    2.24192000      1.057804   -0.88879900   -0.92422700
Se   11.72286000    0.50093000   10.72398000     -0.567099   -0.28172200    0.90286900
Se    8.79187000    8.67813000   18.67935000     -0.562654    0.14222900    0.53444400
Se   10.04719000    9.25929000    9.13377000     -0.501456    0.25246300    0.22650200
Se   13.49823000   12.65286000   19.04993000     -0.630836    0.04644400    0.31064000
Se   13.26178000   10.77100000    9.73318000     -0.693608    0.55949600   -0.00669600
Se   15.71033000   14.80463000    1.15481000      0.492794   -0.94262300   -0.03993100
Se   12.11185000   18.35664000    8.35607000     -0.688920   -0.60811200   -0.29529400
Se   16.18879000    2.65487000    2.73182000      0.192075    0.95723400    0.08422000
Se   13.70160000    0.94277000    9.83545000      2.375475   -0.35430700   -0.14565800
Se   18.75544000    5.43417000   18.56702000     -1.739975   -0.32389000   -0.77632000
Se   21.15887000    8.29571000    9.15409000      0.463409    0.08535500   -0.15298700
Se   18.10271000   10.76820000    1.18247000      0.007174   -1.20320600   -0.55385000
Se   16.96134000   15.70442000    5.83015000      1.172712   -0.26708700    0.11495500
Se   19.66229000   17.02666000    1.21569000      0.300563    0.35462200   -0.88649100
Se   18.07279000   17.95095000   11.26372000      0.371000    0.37753700   -0.18001700
Se    4.49978000    4.50530000    2.56278000      0.326990   -0.22139200   -0.48182800
Se    2.83210000    6.52901000   11.84218000     -0.498855    0.84800400    0.43969800
Se    4.14227000   10.66753000    2.61794000      0.033814   -0.36132200   -0.56241200
Se    5.60420000   12.93171000   11.00884000      0.260069    1.06368500    0.05338500
Se    4.80378000   13.61545000    3.50719000     -0.170543   -0.22524800    0.04541100
Se    3.03455000   17.11272000   10.69122000      0.922704    0.01142400   -0.37524200
Se    4.91726000    1.20684000   17.61102000      0.224476   -0.36256400    0.55612200
Se    6.49789000   21.60407000   10.09600000     -0.452250   -0.04830200    0.81892700
Se   11.27287000    7.22997000    4.70601000     -0.200216    0.82350200    0.54083300
Se    7.35562000    2.74444000   10.25372000     -0.611342    1.05653200    0.30226000
Se    9.63916000   11.17645000   15.97463000      0.490383    0.87887200    0.32156200
Se    7.85466000   10.15708000    8.86264000      0.830310    0.05270900    0.72989900
Se    9.63183000   16.85711000    0.38188000      0.277787    0.06899500   -0.62856300
Se   11.71876000   16.49246000   11.07420000      0.414950   -0.43740800   -0.63762200
Se   14.38543000    0.86205000    1.46272000     -0.617332    0.23582900    0.79696000
Se   12.26391000   21.63040000   13.30986000      0.407399    0.27328200    0.56537800
Se   12.25712000    8.35605000    0.97224000     -0.372285   -0.12183900    0.12151900
Se   19.56609000    7.40499000   12.22145000     -0.065513   -0.15862600    0.19575100
Se   15.65655000    7.90674000    0.01842000      1.113788    0.64367900    0.16502800
Se   14.54501000   10.90219000   12.43488000     -0.534882    0.31465200    0.68098600
Se   19.29371000   13.73151000    2.50464000     -0.113429    1.11338600    0.36806100
Se   14.79363000   14.03374000    9.10129000     -0.343019   -1.32513500   -0.15854000
Se   17.05866000    0.72455000    0.34599000      0.772984    1.29984600    0.17152300
Se   14.44623000   19.61855000   10.55631000      0.233019    0.47439500   -0.06106600
Se   21.13068000   22.45500000    1.93114000      0.352668    1.36390400   -0.23704600
Se   21.85547000    4.86055000   10.21699000     -0.310445   -0.12727000    0.88811800
Se   20.81520000    5.54481000    1.82864000     -0.297172    0.76890200   -0.55361200
Se   22.10200000   12.03953000    9.29349000     -0.004536    0.04248300    0.12290800
Se   21.89326000   13.71004000    0.50873000     -0.202186    0.33446100   -0.78555000
Se   21.53775000   16.79807000   11.04081000      0.749294    0.14242100    0.54928200
Se    1.42660000   20.54592000    1.95060000     -0.026287    0.20699000    0.06384700
Se   20.03903000   21.05477000   14.30273000      0.269333    0.79360300    0.28870900
Se    4.18648000    5.01954000    8.88190000     -0.233391   -0.45443500   -0.66525000
Se    0.52868000    6.56537000   15.25226000     -1.156446   -0.78949300    0.32382800
Se    4.00972000    9.69430000    9.08720000      0.702286   -0.58151300    0.02692900
Se    1.40246000    9.20254000   17.13172000     -0.360003   -0.17385600    0.75770600
Se    2.64765000   17.63278000    6.72608000     -0.183072   -0.25704800    0.05275800
Se   22.85966000   17.47044000   14.67475000     -0.102621    0.07179500    0.32784500
Se    4.67477000   22.37433000   13.36015000      0.009692    0.25794300    0.34065500
Se    8.67055000    0.33055000   16.96528000     -0.064185   -0.16461200   -0.14665000
Se    7.59022000    4.23221000    4.92899000     -0.000869   -0.87713100   -0.67610000
Se    6.23708000    5.36801000   17.99817000     -0.325753   -0.73216100    0.02378700
Se    6.54014000    9.73143000    5.88998000      0.147455   -0.33331200   -0.67356600
Se    3.95031000    6.61702000   15.62920000     -0.865708   -1.46975100    0.82732300
Se    6.69458000   17.20212000    9.40830000      0.308186   -0.33102600    0.17369200
Se    7.29960000   16.39008000   17.49732000     -0.342269   -0.51456700   -0.06409300
Se    8.63543000   19.31284000    7.05459000      0.250592   -0.58659000   -0.19979600
Se    5.67228000   21.84060000   18.34252000      0.171841    0.51556200   -0.03497200
Se   16.96703000    1.82152000    6.75145000     -0.375166    0.03278300   -0.09727600
Se   13.21056000    4.19901000   15.18585000     -0.531251    0.12704000   -0.41961200
Se   14.09824000    7.93417000   10.68290000     -0.432434   -0.34026300   -0.23722600
Se   13.94555000   10.78511000   16.26840000      0.168756   -0.06805100   -0.46284900
Se   14.04443000   15.17314000    5.68672000     -0.198534    0.86910600    0.25173600
Se   13.77339000   16.09170000   17.00142000      0.003828    0.40267900    0.15151300
Se   13.31812000   21.59098000    7.86611000     -0.541184    0.11144300   -0.06523200
Se   18.22152000   20.53449000   18.62593000      1.132306   -0.70270800   -0.98704800
Se   18.07133000    3.01083000    9.24106000      0.795618   -0.08181800    0.31746100
Se   21.12668000    2.81771000   18.26187000     -0.485322    0.01456900    0.07138900
Se   17.54819000    9.84139000   10.71803000      0.586194    1.02945000    0.00836700
Se   17.01598000   10.08932000   16.64623000     -0.231418    0.47852400    0.18296400
Se   15.23807000   16.25038000    9.25624000      1.218195    0.20025000    2.14703000
Se   18.71146000   15.84807000   14.65663000      1.095286    0.53694000   -0.02762500
Se   18.95948000   17.15749000    8.92212000     -0.430081    0.37918300    1.06610500
Se   19.58246000   20.45266000    1.93892000      0.037323   -1.21727900   -2.48301100
Se    4.47337000    1.10991000    8.47900000     -0.029960    0.16945600   -0.30646000
Se    0.67244000    3.32547000   18.17445000      0.841247   -0.18568300   -0.11530200
Se    6.31838000    7.46661000   10.99798000     -0.284967    0.95436300   -0.44469400
Se    0.47150000    8.32284000    0.25688000      0.178888    0.20986100   -0.83699100
Se    4.90666000   14.58477000    7.44317000      0.081302    0.60528300    0.45784000
Se    4.93828000   13.74018000   17.21690000      0.032602    0.55821800   -0.06684600
Se    3.46399000   20.18408000   11.13360000     -1.632869    1.54397000    1.21472400
Se    0.88237000   16.81206000   17.92808000     -0.271997   -0.08504200   -0.34298200
Se    9.14916000    0.92455000   10.15146000     -1.269876    0.05166600   -0.68973800
Se   11.36112000    4.59872000    2.56535000     -0.862914    0.63952100   -0.44583000
Se   11.22303000    4.73332000   11.56232000      0.759722    0.08101400   -0.17224600
Se    4.93938000    7.77189000   19.14552000     -0.184918    0.29823100    0.06010400
Se   11.03709000   13.82530000    8.46970000     -0.135545    0.10827800   -0.16889700
Se    8.60770000   12.85460000   17.58943000      0.204344   -0.44116000   -0.17987700
Se   10.70844000   21.42780000    8.56964000      0.793363    0.25402200   -0.83329800
Se   11.76275000   14.70168000   16.40872000      0.788747    0.41585900    0.27642700
Se   18.66651000   20.63335000    8.52696000     -1.174953   -0.81859400    0.37770400
Se   14.67894000    4.60980000   19.28856000     -0.043974    0.18800400    0.26034300
Se   15.27437000    4.47343000   10.37007000     -0.047279    0.13780300   -0.26979200
Se   11.36117000   10.33675000    0.28397000     -0.053301   -0.21023700   -0.21771500
Se   16.69214000   12.29219000   10.26715000      0.158170    1.05627800    0.64741700
Se   16.53885000   13.30679000   17.83338000     -0.905658   -0.41872100    0.01001800
Se   15.56627000   18.79010000    5.59501000     -0.684332    0.10295500    0.79811300
Se   15.98850000   21.73981000    2.49975000      0.057274   -1.20176000   -0.44508300
Se   22.12751000    0.97337000    8.45533000      0.020995    0.81163700   -0.13492600
Se   22.78680000    1.16366000   16.24227000     -0.067979    0.08477100   -1.13455600
Se   19.49813000    6.06278000    8.21457000      0.415974   -0.23338600    0.06385300
Se   20.65911000    7.95358000   19.20232000     -0.002849    1.04337000   -0.06310100
Se   21.24317000    9.33369000    6.89440000      0.401600   -0.10177500    0.49735500
Se   20.69202000   10.29141000   17.72467000      0.066968   -0.48484600    0.44128900
Se   20.23957000   17.30071000    6.43792000      0.964112   -0.46157800    0.14903000
Se   18.19972000   17.90091000   18.58632000      0.029127    0.21169700    0.01057600
Se    2.06688000    1.41025000    9.01731000      0.882196   -0.10926200   -0.26153300
Se    2.67703000    3.12676000   16.53800000      0.655131    0.64492600    0.03601200
Se    1.35142000    7.31045000    7.45090000     -1.909576    1.57648000    0.22028300
Se   21.66793000    9.09428000   16.00314000      0.607856    0.55383500   -0.19539800
Se    1.64571000   15.10893000    6.83070000      0.004297    0.57309300    0.11320300
Se    1.16220000   12.42694000   17.07002000      0.358240    0.23692700   -0.33224700
Se    0.98394000   18.06761000    4.62822000      0.216924    0.27506600   -0.28342500
Se    2.41708000   20.18905000   15.85430000     -0.526285   -0.16506600   -0.42058400
Se    8.65123000   22.99436000    5.41164000     -0.926595    0.11000800    0.10028300
Se   11.74713000    0.98657000   18.63753000      1.218458    0.22176700   -0.75188900
Se    7.30498000    6.24609000    7.24926000      0.152590    0.08677300   -0.15902500
Se    6.92840000    7.29707000   14.56116000      1.621777   -0.25419600    0.38982700
Se    7.93740000   13.62388000    5.19718000      0.883115   -0.02833900    0.96580000
Se    7.49105000   16.94890000   13.95602000      0.058306    0.65498600   -0.86516400
Se    4.44494000   20.09285000    6.69953000     -0.859500    0.27719300   -0.47302100
Se    8.22052000   15.40565000   15.39848000      0.785881   -1.16843400    0.66230900
Se   14.12999000   20.88963000    5.40489000     -0.027083   -0.78525900   -0.10426300
Se   15.17171000    1.56780000   16.67206000     -0.140032   -0.20875800   -0.45507800
Se   12.76326000    5.81660000    7.73527000     -0.425411   -0.43135500    0.62876600
Se   11.30629000    7.52418000   15.42842000     -0.514303   -0.19148800   -0.15554200
Se   14.09038000   11.20692000    5.61283000      0.143701   -0.41776300    0.01066700
Se   13.47698000   13.07485000   13.00100000      0.108628   -0.46242300   -0.75177900
Se   10.08999000   16.04634000    5.13242000      0.509035   -0.33637300   -0.90709000
Se   13.30624000   20.42004000   19.30124000     -0.928007    0.06693900   -0.15430400
Se   19.83266000    2.46202000    6.12300000      0.653529   -0.18989800   -0.66938200
Se   18.99356000   22.60200000   16.46817000     -0.306771    0.83032800    0.98198000
Se   17.06120000    4.28420000    6.25085000     -0.649099    0.75065400   -0.13584000
Se   18.05873000    6.74499000   16.51097000      0.396334   -1.12825100   -0.35109900
Se   20.41399000   11.04761000    4.38202000     -0.399798   -0.62495500   -0.41355200
Se   16.97373000   12.85926000   13.32231000     -0.149749   -0.94721500   -0.17198000
Se   18.23650000   19.19136000    4.88714000      0.084724   -0.12272700    0.49819500
Se   17.42752000   22.29502000   13.27180000     -0.111913   -0.32841600    1.58481200
Se    2.99683000    6.21376000    6.45163000      2.363279   -0.80476200   -0.36372800
Se    4.12719000    4.65157000   12.28248000      0.158573   -1.25418900    0.32918200
Se    1.77045000    8.42458000    3.42898000     -0.920304   -0.50175000    0.91937500
Se    3.76959000   10.23924000   16.39683000      0.444126   -0.77501400   -0.20252100
Se    6.63497000   12.07442000    6.42622000     -0.828897    0.32555600    0.84242600
Se    4.65233000   18.02015000   17.56299000     -0.387053    0.34835500    0.51627300
Se    2.23304000   22.10292000    5.89041000     -0.051185   -0.16317800    0.21449700
Se    6.46838000   21.74785000   14.82774000     -0.669450    0.62609200   -0.29521400
Se   11.48033000    1.72327000    7.11756000     -0.404116   -0.17446400    0.69937900
Se   12.26278000    4.51347000   17.30042000     -1.459080   -1.89055200   -0.29913200
Se   10.40039000   10.72190000    6.54300000      0.097488   -0.19039200    0.07594000
Se    7.09112000   10.69758000   14.03066000     -0.589354   -0.13478100    1.11730200
Se    8.78546000   15.50836000    8.91403000      0.484759   -0.16581400   -0.23613000
Se   10.47869000   17.83621000   16.25303000     -0.008960    0.22956600   -0.53477700
Se    8.09015000   18.70202000    4.46587000     -0.227365    0.33715100   -0.16360800
Se   10.20777000   21.27637000   16.66928000     -0.025602   -0.23910000   -0.17035000
Se   13.39303000    3.46523000    5.25757000      0.787120    0.01754200   -0.71417400
Se   17.79980000    3.22101000   14.87865000      0.455392    0.32110000   -0.87840600
Se   15.96837000    7.84524000    7.38613000     -0.317172   -0.09330700    0.12871200
Se   16.43862000    8.76900000   14.05787000     -0.202277   -0.09723700    0.35448400
Se   17.29729000   11.88789000    7.00303000      0.270753   -0.38017900    0.03204300
Se   15.96961000   18.45310000   16.12360000     -0.212090   -0.61270900   -0.18628600
Se   15.26199000    0.45236000    5.55870000      0.127172    0.26734200    0.20808000
Se   18.66303000    2.84247000   12.45829000     -0.026017    0.10782100    0.50080400
Se    0.37532000    4.36999000    7.28248000     -0.670146    0.22304300   -0.10577000
Se   22.24292000    3.76102000   12.73227000      0.192423    0.21611100   -0.19813300
Se   19.65670000   12.68268000    6.65709000      0.133103    0.34133300   -0.06902900
Se   20.00927000   13.00508000   16.61921000      0.103391   -0.10437400   -0.36921600
Se   22.22989000   13.94507000    6.34572000     -0.097666   -0.37681300    0.00081900
Se   19.54719000   18.82758000   14.76096000     -0.257850   -0.77492600    0.12908800
Se   21.84078000   19.51345000    7.20623000      0.593663   -0.64890200   -0.68745400
Se   22.29661000   20.04685000   17.56999000     -0.470823   -0.08402300   -0.10263100
Se    3.66862000    2.76711000    5.33702000     -0.565394    0.60694700    0.67019200
Se    7.77980000    2.49314000   15.82453000     -0.854545    0.42161900   -0.50618000
Se    2.33715000    3.72267000    0.78696000      0.605510   -0.28541200   -0.08710800
Se    2.39267000   10.65119000   11.38957000      0.034533   -0.30320600   -0.00089600
Se    0.65779000   11.95493000    3.44887000      1.145668   -0.27255900   -0.11175500
Se    2.68483000   15.48746000   14.59841000     -0.646931   -0.61934900    0.32012200
Se    4.19113000   16.53778000    0.25237000     -0.268723   -0.25930200    0.12939600
Se    4.82684000   18.57138000   13.09757000     -0.076419    0.12293600   -0.05960500
Se   10.17043000    0.99710000    2.73097000      0.261442   -0.40194200    0.52238300
Se   11.25824000    1.83229000   14.64174000     -0.247258    0.00130400   -0.35674700
Se    8.85720000   10.19428000    3.17846000      0.429570    0.34260500    0.16003000
Se    6.64316000    8.86133000   17.65697000      0.579151   -0.73079700   -0.12154300
Se   11.65150000   13.20994000    3.08450000     -0.617957   -0.75030400    1.34321300
Se    9.56232000   13.60084000   11.78852000     -0.410455    0.39450000   -0.58126900
Se    9.25945000   20.88096000    1.36713000     -0.325523   -0.23625700   -0.16967000
Se    9.63993000   18.60212000   14.14200000     -0.357953   -0.32496600   -0.13137300
Se   18.93999000   22.33005000    6.86513000      0.261251    0.19490000    0.17925900
Se   15.11825000    2.48915000   12.04668000      0.208483   -0.25699700    0.95215200
Se   14.82400000    6.50932000    3.25631000      0.125933    0.70425100    0.47043800
Se   15.07054000    6.36363000   16.18706000     -0.422144   -0.01809800   -0.22438600
Se   15.22832000   12.66926000    2.18477000      0.544196    0.58421700    0.14545200
Se   14.80566000   16.66968000   12.81682000      0.684347    0.36257400    0.28401300
Se   16.13245000   16.94738000    2.54040000      0.255415    0.01880300   -0.18664300
Se   14.15904000   19.83355000   14.77285000     -0.321632   -0.52609800    0.83582900
Se   22.91645000   22.79577000    4.60405000      0.640157    0.18091400   -0.11028300
Se   22.22141000   22.91424000   13.77404000     -0.407458    0.72841800   -0.31969800
Se   19.14177000    2.87205000    3.65429000      0.026225   -0.97008800    0.02790200
Se   19.59220000    9.76412000   13.91920000     -0.211583    0.43427800    0.12651300
Se    2.90298000   11.03657000    5.85183000     -0.582994    0.35503200    0.70003100
Se   21.65975000   15.08484000   15.75859000     -0.269637    0.04686000   -0.29274800
Se   22.20907000   18.80481000    2.53046000      0.572303   -0.16998500    0.37179200
Se   21.98425000   20.14715000   11.27016000      0.119490   -2.10063300    0.13689600
Se   22.75795000    4.89870000    4.75332000      0.767378    0.26010500    0.51768300
Se   21.80968000    4.70969000   15.46925000      0.200147    0.60957100   -0.32763500
Se   20.87474000    9.31789000    2.57750000      0.979473    1.33969800   -0.10132000
Se   22.75659000   11.99252000   13.19792000      0.101851   -0.98365400    0.67392400
Se    2.30966000   14.13369000    0.97020000     -0.278974   -0.49622200   -0.24483200
Se    2.70916000    1.49803000   12.91551000     -0.439414   -0.08716400   -0.14993000
Se    3.87416000   22.76666000    2.99081000      0.374331    0.17752600   -0.31597200
Se    6.11113000   19.42459000   14.97434000     -0.454920   -0.87306300    0.14712000
Se    8.92330000    4.70988000    8.26348000      0.235790    0.21904800    0.23939500
Se    7.91340000    5.46375000   13.40376000      0.422816   -0.22763200   -0.17800900
Se    5.68820000    6.04204000    4.29376000     -0.442481    0.47637400   -0.08985400
Se    8.22822000   11.49383000   12.30535000     -0.010424   -0.06340400   -1.74372700
Se    7.54300000   15.47536000    2.54135000      1.345768    0.02702500   -1.78170300
Se   11.97398000   15.43036000   13.26093000      0.998455    1.48821500    0.07272000
Se    7.40597000   22.42289000    7.69935000      0.344641    0.01332200   -1.01673400
Se    9.26739000   21.71161000   11.99116000      0.202286    0.22561200    0.67937100
Se   13.08111000    0.32718000    3.37090000     -0.387655    0.32131500   -0.55950000
Se    9.62297000    2.40605000   12.86917000     -0.045200    0.12806600    0.41372900
Se   15.12537000    8.99696000    4.06128000      0.469225    0.06743500   -0.42671900
Se   10.81285000   11.09992000   13.43094000      0.224202   -0.49437800    0.18618200
Se   12.95789000   16.47864000    1.59428000     -1.099518    0.02037400    0.58016700
Se   12.57905000   17.86687000   14.70120000      0.554549    0.28031100   -0.34480300
Se   12.24999000   19.98000000    3.77005000      0.154921   -0.35458800   -0.02629400
Se   13.67623000    0.16833000   14.90635000     -0.503537   -0.72151800   -0.32257200
Se   19.63193000    3.10881000    0.91838000      0.380737   -0.71952200   -0.01862200
Se   17.01961000    6.89874000   12.73173000      0.819104    0.11546500   -0.28348800
Se   19.09039000    7.76668000    4.58510000     -0.775298    1.63168500   -0.20554000
Se   20.46738000   13.55627000   12.82856000      0.612479   -1.04352600   -0.83850400
Se   22.08983000   15.61811000    3.21960000      0.820717    0.40176700   -0.26680000
Se   18.50422000   14.54327000    9.26960000      0.292574    0.80408100   -0.00295400
Se   19.74382000   20.98772000    4.09611000      0.844625    1.17403700    2.57851000
Se   18.19562000   22.10745000   11.14157000     -0.193610   -0.08689500   -1.36870900
