384
23.00800000 23.00800000 19.32000000
Ge    5.29197000    5.30096000   10.71988000     -0.281103   -1.06759100   -1.03122600
Ge    3.71048000    8.25963000    2.19606000      0.392192    1.04507300   -0.16296700
Ge    2.12592000    9.73834000    8.16499000     -0.510929   -0.48829800    0.77230900
Ge    5.96580000   11.62403000   18.17755000      0.280851   -0.32763900   -0.65956300
Ge    4.55934000   15.21275000    9.83412000      1.423166   -0.81794900   -1.71575300
Ge    7.58685000   18.87324000    2.11039000     -0.792105   -0.13962400   -0.48160300
Ge    6.76955000   20.25546000    8.23899000     -0.900027   -0.26847700    0.38499400
Ge    5.44202000    3.36401000   19.29351000     -0.350201   -2.08127200    2.48129800
Ge    8.67370000    6.04893000   11.06993000      0.040658   -0.02545200   -0.07361800
Ge   10.27079000    7.23567000    2.19919000     -0.459049    0.13466300    0.88990100
Ge   12.56437000   13.49553000   10.07850000      0.945878   -0.22898500    0.57296300
Ge   11.76199000   11.69222000   17.45491000      0.260650    0.45011000    0.02059000
Ge   10.02077000   17.34268000    7.57534000     -1.352238   -0.07181700   -1.75511600
Ge   14.38084000   17.90507000   18.86739000     -0.699172   -0.32648100    0.88491900
Ge   10.97037000    3.30341000    9.71885000      0.065298   -0.59777700    0.72397100
Ge   15.68716000   22.09793000   19.30855000      0.294041    0.09281400    0.02834000
Ge   18.79612000    5.26346000   10.65528000      0.882655   -0.03309800    0.05780300
Ge   17.94005000    8.25356000   18.23588000      0.558857   -0.07588900   -0.97375500
Ge   21.06632000   14.63103000    9.65616000     -0.624145   -1.21236300   -0.20911800
Ge   15.98529000   10.79928000   19.07166000     -0.236652   -0.03919400    0.14146700
Ge   13.78404000   16.92136000    7.22765000      1.957469   -0.74350100    0.12927000
Ge   19.69014000   14.45087000    0.11904000     -0.167049    0.51963300    0.68039900
Ge   19.54498000    0.85021000    9.80970000      0.353013   -1.45571900    0.36841500
Ge   17.66926000    2.23450000   17.40048000     -0.691921    0.20878500    0.37736800
Ge    0.12365000    8.29964000   10.06187000      1.213948    0.06556900    0.31861100
Ge   22.00816000    1.64696000    2.38980000      0.385944    1.65337800   -0.68018900
Ge    0.27131000   12.38899000   11.36539000      0.307215    0.16314000    0.48863300
Ge   22.29590000   11.20019000    1.18328000      1.023121    0.32592700   -0.61685900
Ge   22.52390000   16.14572000    7.96815000      0.385567    0.38599500   -0.03256000
Ge    0.80775000   14.78740000   16.60805000     -1.027502   -0.55175700    0.23504600
Ge   21.35775000   21.62638000    8.63361000     -0.071554   -0.16600300   -0.30547500
Ge    3.65512000   20.92565000    0.82980000      0.154646    0.56239800   -0.59447800
Ge    5.99046000    8.36102000    8.25964000      0.850734   -0.15610400   -0.62307700
Ge    1.67858000    6.75895000   17.50141000     -0.947883    0.35211800    0.35438300
Ge   22.62535000    7.75004000    5.12723000     -0.002280   -0.42415300    0.12882600
Ge    3.10871000   12.26747000   15.72403000      1.506111   -0.54970500   -0.43432700
Ge    6.63824000   15.17400000    4.84427000      0.135461    0.76131300    0.40821300
Ge    2.35339000   19.21460000   18.00013000      0.266237    0.39265000   -0.24994600
Ge    4.17085000   18.75167000    9.49370000      0.442464    0.85103600    0.30826700
Ge    2.13205000   22.82756000   15.45366000      0.429149    0.03134400    0.31758100
Ge    8.72540000    2.05856000    7.48096000     -0.633427    0.05925700    0.41587200
Ge    8.39510000    3.72311000   17.86976000     -0.039849   -0.51202800   -0.40413300
Ge    7.19328000   13.18442000    2.88485000      1.255189   -1.54205000   -0.69299900
Ge    6.85984000    9.20676000    1.73458000      0.579819   -0.33179500    0.28857700
Ge    5.59925000   17.08384000    7.00002000     -0.049329   -0.46698000   -0.53406800
Ge   10.27458000   14.51807000   18.71962000      1.214996   -2.13859500   -1.10120800
Ge   10.96751000   22.57089000    6.19967000     -0.293592    0.08576200   -0.33659800
Ge   10.15007000   22.78838000   14.22521000      0.264395   -0.73501500    0.85527500
Ge   13.45404000    5.68618000   10.35245000     -2.109816    0.55848400    0.47296800
Ge   13.55742000    6.91776000   18.55852000     -0.394153   -0.14238700   -0.63915000
Ge   13.40820000    8.20128000    8.12975000     -0.068679    0.20463000   -0.36434000
Ge   14.99094000   13.36200000   15.25471000      0.240567   -0.11158100   -0.19367600
Ge   13.99026000   17.45318000    3.93712000     -0.185642   -0.88355100   -0.51902900
Ge   14.35442000   19.61186000    2.77252000     -0.545029    0.98932400   -1.11771000
Ge   15.20461000   21.64872000    9.81159000      1.229487    0.55012300   -0.54383700
Ge   16.07289000    1.34337000   14.41630000      0.604537   -0.31935200   -0.46871200
Ge   20.78879000    3.46814000    8.12961000     -0.179140   -0.00057600   -0.17489300
Ge   21.41152000    5.14635000   17.63264000     -0.383788   -0.37388100    0.17736100
Ge   16.17215000   10.13512000    8.61526000     -0.425623    0.86163300    1.09533500
Ge   18.30072000   14.69003000   17.17502000     -0.512481   -0.18316800   -0.29643500
Ge   18.34306000   16.51937000    3.85262000      0.782315   -0.02787000   -0.25695200
Ge   20.80064000   18.20646000   17.38913000     -0.091005   -1.09277200    0.01222900
Ge   22.12648000    2.60669000    4.79155000     -0.302881   -0.03454500    0.12318900
Ge   19.71983000    0.82093000   19.11628000     -0.201860   -2.59960400    0.31158000
Ge    5.56729000    3.45573000    7.77376000     -0.104211   -0.09710200   -0.65947000
Ge    1.92139000    4.89670000   14.46524000     -0.538954    0.75568000   -0.12472400
Ge    2.52112000    6.18444000    3.27766000     -0.798045   -0.26895200    0.62648600
Ge    1.30508000    9.73663000   13.85217000     -0.703110   -0.12860200   -0.78537800
Ge    2.15114000   14.04704000    3.04223000     -0.333819    0.55539000    0.65356800
Ge    0.51336000   17.65730000   12.32811000      0.800183   -0.25776900    0.54384900
Ge    1.06077000    2.07817000    6.53862000      0.606674    0.82314800    0.73835400
Ge    4.94293000   15.66345000   15.47710000      0.123849    0.45332600   -0.46762200
Ge    9.34100000    3.21459000    3.00450000     -0.605768    0.83494200   -0.37707400
Ge   10.58874000    2.28569000   17.13074000     -0.048001   -0.60044000    0.49667000
Ge    9.29021000    8.92869000    5.41776000      0.110955    0.48693500    0.10929500
Ge    9.52534000    8.82847000   14.26319000     -0.548827    0.44071800   -0.99719700
Ge   11.62250000   13.98479000    5.49836000     -0.006112    0.07839500   -0.26498500
Ge   10.07504000   13.81619000   14.16327000      0.857412   -0.00581900   -0.75918700
Ge    6.94090000   22.11393000    1.63361000     -0.237883    0.19252900   -0.08676600
Ge    8.58611000   18.13448000   17.92427000     -1.067256    0.17708700    0.22008200
Ge   14.27379000    2.49943000    6.87860000     -0.118667   -0.46334300   -0.16337300
Ge    9.96131000    5.41391000   16.03266000     -0.107547   -0.34629800    0.17578000
Ge   14.61836000    5.97009000    5.63853000     -0.867923   -0.45812300    0.48283900
Ge   13.42965000    9.79935000   14.11178000     -0.747184   -0.28399300   -0.04884400
Ge   15.83610000   13.11368000    5.26025000      0.206810    0.61338100    0.55089100
Ge   16.28582000   15.81097000   14.90536000      0.663211   -2.23132300   -1.18093000
Ge   10.05122000   18.14745000    2.99898000      0.401890   -0.27728500    0.68422200
Ge   12.83730000   21.36332000   16.51408000     -1.005068   -0.79134000    0.70047500
Ge   17.44934000    4.82797000    3.59389000      0.291125    0.35921000    0.57494400
Ge   20.82665000    1.60690000   12.34614000      0.051099    1.05823100   -0.51177100
Ge   18.47798000    8.57540000    6.74704000      0.503711   -0.32150800   -0.06575200
Ge   18.41182000   11.30428000   15.51322000     -2.239979   -1.20943800   -1.65928200
Ge    1.00797000   16.24863000    0.70458000      0.189498   -0.28088900   -0.20840800
Ge   18.27717000   14.78454000   12.45713000     -0.124877   -0.60935800    0.72743300
Ge   22.69522000   20.36508000    4.51580000     -0.249518    0.02100200    0.13100900
Ge   22.53528000   19.92956000   15.24035000      0.450084    0.46807600    0.18283700
Ge    6.33511000    2.45987000    3.74941000     -0.623644   -0.17941100    0.27363500
Ge    4.67621000    4.35136000   15.99771000      1.023533    0.47585000   -0.58161100
Ge    3.99289000    8.90587000    5.01546000     -0.119821    0.55069000   -0.17732400
Ge    4.43555000    8.20338000   13.43009000     -0.517781   -0.46884700    0.22448400
Ge    4.63818000   14.18199000    0.66903000      1.145458   -1.00285000    0.34733100
Ge    2.62609000   12.81404000   13.08159000      1.389040    1.33013500    0.74810700
Ge    4.31662000   22.97996000    6.05158000      0.633536    0.77391000   -0.47027200
Ge    7.66706000   20.16503000   11.93532000     -0.767437    0.40145100    0.00579600
Ge   10.99350000    4.33000000    6.03347000      0.517409   -0.03740100    0.33930900
Ge    7.46365000    1.11992000   13.02212000      0.298268   -0.21168500    0.39450100
Ge   12.32632000   10.02499000    4.46039000     -0.479881    1.30995100    0.22849300
Ge   14.00876000    7.14796000   13.94630000      0.178633    0.77576100   -0.25959800
Ge   12.41982000   14.35188000    1.01705000     -0.509943    0.07487400    0.60746200
Ge    9.17836000   16.37009000   10.97411000      0.275377   -2.20563200    0.80239600
Ge   11.46580000   22.04552000    1.01205000      0.397901    0.44079800   -0.27770400
Ge   11.45803000   19.37141000   11.86015000      0.193570   -0.68582700    0.04283500
Ge   22.70960000   22.83872000   18.30210000     -1.430977    0.27846500   -0.36313400
Ge   15.54109000    4.51214000   13.45684000      0.526074   -0.45874700   -0.51507000
Ge   17.11811000    8.56980000    2.29542000      0.228997   -1.60208100    0.55725000
Ge   16.83712000    7.08139000    9.92073000     -0.401840   -0.05042400    0.53710800
Ge   17.95300000   12.13139000    3.76874000      0.218516   -0.13388200   -0.59921800
Ge   19.44105000   15.08552000    6.94422000     -1.052377    0.18089200    0.03537900
Ge   17.24129000   19.35014000    2.76451000     -0.213969    0.02295100    0.55934400
Ge   16.19703000   19.11113000   12.38147000     -0.749380    0.43946200    0.60508900
Ge    1.29348000    0.08525000    2.07081000      0.461289   -0.11257000    0.14678800
Ge   22.74857000   22.32126000   11.04894000     -0.267168   -0.00726100   -0.19687500
Ge   20.16504000    5.18575000    4.39897000     -0.507414    0.73876300   -0.71492800
Ge   20.30153000   11.06444000   11.72654000     -0.179660   -0.89447600   -0.47145000
Ge   21.74052000   13.52775000    4.06888000      0.235141   -0.16748800   -0.33359500
Ge    0.89240000   18.62606000    8.40270000     -0.099529   -0.69424000    0.31201200
Ge    2.76227000   19.98262000    4.00213000      0.105655    0.45750400    0.25159200
Ge   20.15936000   18.67475000   12.32372000      1.080255   -0.26104200   -1.07689800
Se    1.97391000   22.73191000   18.25404000      1.417894   -0.17374500   -0.01114400
Se    0.97334000    2.44279000   11.77508000      0.484119   -0.43711000   -0.09737000
Se    0.08875000    4.80148000    2.05919000     -0.284837    0.41269300   -0.14249000
Se   22.46549000    8.23659000   12.40902000      0.415227    0.11528900   -0.23520400
Se    4.06833000   10.98877000    0.27817000     -0.153404   -0.36399300    0.72054800
Se    1.71483000   14.46172000   11.42860000     -0.868221   -1.08667900    0.22163800
Se    3.01636000   17.85009000    1.16076000     -0.706434   -0.23747100    1.08095200
Se    1.37067000   21.01458000    9.74299000      0.612330    0.20036100    0.06646300
Se    7.63443000    2.28750000    1.10257000     -0.063352    0.09043200   -0.14115000
Se    5.45357000    1.91477000   11.77898000     -0.090700    0.46706500   -0.25208300
Se    7.58583000    7.25744000    3.37795000     -0.103590    0.12798800   -0.11164200
Se   10.21243000    8.01749000   11.49981000     -0.214744    0.13265700    0.43587700
Se    8.24211000   12.24125000    0.62839000     -0.194268    0.31031900    0.13006100
Se    4.95853000   13.78028000   12.66027000      0.321516   -0.19607000    0.99136300
Se    5.11785000   19.86719000    2.59712000      1.688161   -0.30010300   -0.09812200
Se    9.41797000   18.55538000   10.38607000      0.145019    2.20959100   -0.43239900
Se   13.82580000    3.90589000    2.21898000      0.677653    0.66719200   -1.14793400
Se   11.90160000   22.97000000   11.24142000      0.775239    0.55222800   -0.83998500
Se    8.44799000    8.67106000   18.89125000      1.102563   -0.23402300    0.22559100
Se   10.13521000    9.31163000    9.45772000      0.442402   -0.11091800   -0.05846100
Se   13.53097000   12.56178000   19.05540000      0.297465   -0.31579600    0.29500300
Se   13.38325000   11.20060000    8.87402000      0.277071   -0.22401300   -0.12049900
Se   15.94093000   14.58308000    1.00288000     -0.112364    0.31119100    0.27959800
Se   12.08379000   18.15280000    8.08462000      0.356296    1.06814800    1.13665800
Se   16.08054000    2.93513000    2.92695000     -0.068593    0.10896300   -0.51470900
Se   13.92584000    0.85250000   10.12537000     -0.504569   -0.21042900    0.22737800
Se   18.57680000    4.94867000   18.03392000      0.945709   -0.76770900    1.04152900
Se   21.09440000    8.36973000    8.80860000     -0.857161    0.13994000   -0.17034500
Se   18.03225000   10.47235000    1.38396000      0.991658    1.44438300   -0.54931600
Se   17.27312000   15.74785000    5.90284000     -0.000659   -0.45566700    0.37210000
Se   20.17265000   17.17231000    0.51992000     -0.034941   -0.37634100    0.03540600
Se   18.12479000   18.21544000   11.01525000     -0.154520   -0.06475400    0.58903400
Se    4.99452000    4.31969000    2.49025000      0.251217   -0.13235500    0.11460500
Se    2.56862000    6.63636000   12.55725000      0.692035    0.08890500   -0.91446800
Se    4.79625000   10.64412000    2.84688000     -0.586596   -0.49430400   -0.86068800
Se    5.91380000   13.39954000   10.52036000     -0.548227   -0.24308600    0.50463600
Se    4.88015000   13.77565000    3.38929000     -0.808179    0.10463800    0.35937900
Se    3.33545000   16.82826000   10.83182000     -1.617903    0.52373000    1.08805400
Se    4.95323000    1.60563000   17.71801000     -0.321671   -1.02337800    0.06971700
Se    6.03039000   21.56183000   10.43993000      0.948518   -0.86826900   -0.40223700
Se   11.42174000    7.70357000    4.62139000     -0.176596   -0.94701900    0.04234800
Se    6.88850000    3.36745000   10.22329000     -0.137892    0.14593600    0.87172600
Se    9.81764000   11.50795000   15.56988000     -0.768456   -0.27717100    1.28553200
Se    8.10289000   10.16463000    8.81535000     -0.825293   -0.16340100    0.12104700
Se    9.58794000   16.44539000    0.21562000     -0.757290    2.28150000    0.28040400
Se   11.92879000   16.20720000   11.06573000     -0.349871   -0.14440500   -0.56586600
Se   14.42382000    0.95311000    1.90232000      0.332767   -0.21982900   -0.94509600
Se   12.51977000   21.74263000   13.77559000      0.211324   -0.30284600   -0.32827000
Se   12.05886000    8.58097000    1.02742000      0.115377    0.53352600   -0.20351500
Se   19.60591000    6.89179000   12.55173000      0.866064    0.19165500   -0.32852000
Se   15.83035000    7.92426000    0.10060000     -0.543394    0.06109300    0.15721600
Se   14.03168000   11.00153000   12.12166000      0.291517    0.17685700   -0.56481500
Se   19.37309000   13.96222000    2.90737000     -0.308580    0.59062300   -0.53719000
Se   14.98868000   13.88748000    8.88182000     -0.743364   -0.43539200    0.10714500
Se   17.46097000    1.05688000    0.62790000     -0.363158    0.05537300    0.02332800
Se   14.49147000   19.49259000   10.53310000     -0.399660   -0.49458900    0.53756300
Se   21.08779000   22.62910000    1.89254000     -0.959964   -1.39738100   -0.73085600
Se   21.48834000    4.75335000   10.41342000     -0.342554    0.99959100   -1.59420700
Se   20.77548000    5.69047000    1.89899000      0.577101   -0.42838600    0.96610000
Se   22.03255000   12.35073000    9.31454000     -0.072729   -0.33563700   -0.05525500
Se   21.93549000   13.90730000    0.20659000      0.469247   -0.47039500   -0.04038800
Se   21.92514000   16.56952000   10.62567000     -0.127770    0.53328900    0.99893500
Se    1.01063000   20.35787000    1.87910000      0.691339    0.81131800   -0.41113000
Se   20.55548000   21.33168000   14.14625000      0.347401   -0.54948100    0.32685200
Se    3.95003000    5.11344000    8.67329000      0.001427   -0.04680200    0.47909100
Se    0.01774000    6.65246000   15.15682000      0.720321    0.00013100    0.46772000
Se    4.24276000    9.48521000    9.50772000     -0.561333    0.05168000   -0.04587200
Se    1.04271000    9.26796000   17.47416000      0.097343   -1.16409200    1.12770400
Se    2.69881000   17.64119000    6.80703000      0.238788    0.11632800   -0.04710200
Se   22.42544000   17.50374000   14.72654000      0.121934    0.20745000   -0.19382000
Se    4.70970000   22.43555000   13.55864000     -1.277440    0.11094800   -0.33158300
Se    8.38378000    0.65204000   16.84313000      0.291584    0.47088400   -0.31402900
Se    8.17644000    3.79197000    5.15413000     -0.013494    0.52033900   -0.67707900
Se    5.98751000    5.15320000   18.08188000      0.954185    1.61635900   -1.38119200
Se    6.63136000    9.86058000    5.76816000     -0.519108   -0.34633400   -0.10062800
Se    3.38640000    6.58107000   15.73805000      1.405703    0.30436800   -0.58368500
Se    6.36763000   17.04147000    9.39059000      0.029516    0.50611000    0.31771300
Se    6.94595000   16.11554000   17.07096000      0.250702    0.51615300    0.73055100
Se    9.02088000   19.62272000    7.33534000     -0.018535   -0.39960000    0.00095300
Se    5.27067000   22.19924000   18.42909000      0.783192    0.06354800    0.65844400
Se   16.72104000    2.00665000    6.31873000     -0.358609   -0.00600400    0.47199700
Se   13.46753000    4.59166000   14.87110000     -0.246652   -0.73450300    0.39223500
Se   13.94685000    8.03153000   10.56653000      0.340217   -0.08205700    0.38631000
Se   13.87651000   11.00796000   16.15240000     -0.374954    0.20045600    0.27406200
Se   13.95129000   15.19074000    5.50548000     -0.334174   -0.12040800   -0.02109400
Se   13.67537000   16.15094000   17.27040000     -0.155026   -0.38102800   -0.26310800
Se   13.39840000   21.92876000    7.76436000      1.111096    0.92206600    0.09254600
Se   17.92862000   20.32385000   18.97879000     -0.123606   -0.12132700   -0.41903900
Se   18.37880000    2.83348000    9.55526000     -0.515187    0.22955300   -0.58677900
Se   21.21456000    2.59538000   17.55087000      0.509047    0.25145000    0.33788800
Se   17.36457000   10.01455000   11.27876000     -0.006575    0.19041700   -0.92385800
Se   16.56839000    9.78197000   16.64888000      1.024962    0.20212400    0.45551800
Se   15.35253000   16.17686000    9.13042000     -0.405346    0.81093800   -0.36666200
Se   19.14058000   16.00676000   14.63396000     -1.119064   -0.37509300   -0.44427900
Se   18.73532000   17.36678000    8.95785000      0.551996    0.12347600   -0.60232900
Se   19.18226000   20.14616000    1.60333000      0.560863    0.42435500    0.13253000
Se    4.44595000    1.10464000    8.37137000      1.015015   -0.61564600    0.57906300
Se    1.36930000    3.16043000   18.64002000     -0.375603   -0.14104900   -0.76765400
Se    6.28951000    7.42106000   10.66968000      0.842174    0.38712400    1.16241400
Se    0.04610000    8.17125000    0.25015000      0.553896    0.54170900   -0.66520500
Se    4.76321000   14.71654000    7.43401000     -0.356030    0.01305100   -0.18822900
Se    4.65362000   13.77039000   17.09220000     -0.218657   -0.60521600    0.05079700
Se    2.85131000   20.42402000   11.83487000      0.304453   -0.90516200   -0.47173500
Se    0.92735000   17.11813000   17.54106000     -0.459399    0.08306000    0.65030500
Se    9.34795000    1.26322000    9.88274000      0.091307    0.25433100    0.89980300
Se   10.83187000    4.68057000    1.85160000      0.079037    0.08645500   -0.18497300
Se   11.52129000    4.93127000   11.78356000      0.451721   -0.23223200   -0.32576400
Se    4.95972000    7.49270000   19.07497000     -0.418529    0.52364900    0.55686500
Se   11.01560000   14.27781000    8.27697000      0.309562   -0.67631900   -0.77684300
Se    8.58506000   13.15841000   17.44363000     -0.156036   -0.08073100    0.85511400
Se   11.37329000   21.17801000    8.39940000     -1.268371    0.06453600    0.25763900
Se   11.84152000   14.41122000   16.63927000     -0.122914    0.49648500    0.51099000
Se   18.58344000   20.36209000    8.48331000      0.277347    0.55412900    0.27596400
Se   14.79231000    5.02925000    0.16294000      0.185349   -0.69771200    0.04999800
Se   15.37539000    4.55354000   10.17909000      1.674391   -0.56303100    0.01521100
Se   10.82460000   10.58045000    0.42552000      0.096109   -0.36634100    0.01648900
Se   16.45626000   12.41275000   10.46711000      0.389995   -0.46992700   -0.18694000
Se   16.05648000   13.21576000   17.70963000      0.770080    0.52399700   -0.30291400
Se   15.24633000   18.86075000    6.40052000      0.332249   -0.43465000   -0.03517400
Se   15.94476000   21.57567000    2.46983000      0.147034    0.09587300    0.37325800
Se   22.45402000    1.36451000    8.41553000     -0.804651   -0.64234600    0.31752000
Se   22.84633000    1.51790000   15.92315000      0.123606   -0.24235500    0.33993200
Se   19.39122000    6.19540000    8.02064000     -0.100203    0.10441800   -0.03458500
Se   20.65724000    7.71544000   19.02394000      0.043167    0.78667900   -0.07194900
Se   21.40270000    9.43063000    6.65739000     -0.557742    0.41130900    0.57683300
Se   20.59891000    9.96089000   18.20000000     -0.517128    0.09733100   -0.51912300
Se   20.47339000   17.22096000    6.57742000      0.339032   -0.29847100   -0.26612300
Se   18.33775000   17.64726000   18.45763000     -0.234650   -0.04073100   -0.50311300
Se    2.30835000    1.73841000    8.78299000     -1.036213    0.12468500    0.39477300
Se    2.67635000    3.09324000   16.47386000     -0.725953   -0.31531600    0.47386200
Se    1.27642000    7.51142000    7.08783000      0.674099   -0.20809300    0.33897400
Se   21.25825000    9.86791000   15.62306000      1.429164   -0.29307300    1.22080300
Se    1.57614000   14.74399000    7.71642000     -0.038998    0.31913900   -0.42948000
Se    0.97614000   12.30733000   16.53983000     -1.374542    0.06938200    1.06191200
Se    1.16677000   17.91608000    4.60678000      0.378170   -0.07928800    0.08825700
Se    2.12217000   20.25130000   15.37832000     -0.690638   -0.18884900   -0.11882100
Se    8.40782000   22.77854000    4.99277000      0.456462    0.22989300    0.25165800
Se   12.08852000    1.08567000   18.70117000     -0.119931   -0.20278100   -0.10723900
Se    7.61862000    5.79903000    7.02762000     -0.518913    0.20562600   -0.00759800
Se    7.53517000    7.36008000   14.55200000     -0.417101   -0.78558400   -0.37997100
Se    8.27656000   13.23704000    5.41154000     -1.285670   -0.32504100    0.01632800
Se    7.43426000   16.77773000   13.50510000      0.406326   -0.30037600   -0.17153900
Se    3.98596000   19.96041000    6.84656000     -0.130903    0.19223900   -0.33519100
Se    8.16075000   15.02858000   15.14600000     -0.883372    0.48535500    0.01496900
Se   13.99813000   20.65019000    5.46850000     -0.061166   -0.07092700    0.12245900
Se   15.31449000    1.46079000   17.01138000      0.256292    0.43537100    0.07047600
Se   12.89313000    5.52048000    7.99601000     -0.436214   -0.00908000   -0.63993700
Se   11.05247000    7.47324000   15.45768000      1.305886   -0.07416500    0.51026100
Se   14.49980000   11.16503000    5.78019000     -0.725407   -0.87028800    0.21335900
Se   13.31159000   13.22506000   12.63089000      0.307277   -0.26015400    0.18218200
Se   10.29664000   16.21218000    5.25973000     -0.144105    0.22366900   -0.05058400
Se   13.45584000   20.36895000    0.11618000     -0.087599   -0.36251700    0.04315700
Se   19.95598000    1.81488000    5.92095000      0.084321    0.47659800   -0.30741000
Se   18.99163000    0.29679000   16.82677000      0.342614   -0.68650800   -0.45893300
Se   16.66363000    4.65960000    6.09594000      1.006216   -0.02142700   -0.00548100
Se   18.26231000    6.44888000   16.39387000     -0.441173    1.13729000   -0.65898600
Se   20.11805000   11.20710000    4.57624000      1.964122   -0.90768900   -0.39291700
Se   16.91095000   12.33754000   13.70011000      0.037490    0.55626700    0.97264100
Se   18.19836000   19.22099000    5.10286000      0.281720    0.25737500   -0.17054800
Se   17.38851000   22.15555000   13.75290000      0.083783    0.89334000   -0.76206900
Se    3.75542000    6.55690000    5.90265000     -1.023352    0.42565500    0.51351400
Se    3.97352000    4.33585000   12.47661000      0.091011    0.38307700    0.16548100
Se    1.35465000    8.62267000    3.50092000      0.830206   -0.22485800   -0.46440400
Se    4.19084000   10.11555000   16.62864000     -0.436188    0.84899400   -0.26100700
Se    6.26147000   12.11594000    6.45036000      0.478019    0.00726600   -0.10266400
Se    4.79249000   18.20335000   17.45895000     -0.454403    0.16431800   -0.98716400
Se    2.00908000   21.98451000    5.79519000     -0.103447   -0.47198200    0.82233800
Se    6.72904000   21.67571000   14.27191000      0.953790   -0.14828000    0.27773300
Se   11.19271000    2.01214000    7.43527000      0.784509   -0.14472300   -1.42067800
Se   12.18077000    4.37315000   17.19710000     -0.696192    0.57671000    0.26430100
Se   10.62488000   10.95236000    6.40784000      0.410650   -0.74951600   -0.89455500
Se    7.14109000   10.66311000   14.16814000      0.011120    0.11602400    0.26282500
Se    8.94684000   15.36462000    8.51907000     -0.567404    0.09408800    0.38969000
Se    9.99520000   17.68266000   16.01898000      1.394467   -0.21455100   -0.61382800
Se    8.05347000   18.77932000    4.47037000     -0.016770   -0.01510500   -0.01991300
Se   10.22605000   21.33674000   16.60779000      0.271953    0.46081100   -0.20324200
Se   13.39355000    3.60259000    4.61215000     -0.841127    0.45938000    2.32522800
Se   17.72569000    3.58978000   14.78808000     -0.276968   -0.36622100    0.14216900
Se   15.99469000    7.58504000    7.57426000     -0.297295    0.22784800   -0.70371400
Se   16.50371000    8.64577000   14.17207000     -0.196811   -0.42164500   -0.63480100
Se   17.38182000   11.46557000    6.78879000      0.191968    0.00892200   -0.03845400
Se   16.16404000   17.70923000   16.06738000      0.435058    2.42042200    2.20155700
Se   15.10933000    0.49229000    5.43126000      0.220505    0.03200300    0.29755500
Se   18.66894000    3.15741000   12.59981000     -0.371985   -0.46675200    0.04399900
Se    0.07252000    4.51722000    7.30745000      0.488288   -0.19858100   -0.19560400
Se   21.96498000    4.15779000   12.53993000      0.587648   -1.42235400    0.78166300
Se   19.67657000   12.69188000    6.96288000      0.141281   -0.79724800   -0.14998000
Se   19.76773000   12.77698000   16.50673000      1.609170    1.07082600    0.91336300
Se   22.19341000   13.73430000    6.49834000      0.469631    0.11749000    0.16985500
Se   19.40791000   19.07420000   14.44101000     -0.856774    0.52587700    1.01699200
Se   22.26427000   19.60366000    6.88978000     -0.430938    0.54427200    0.99020000
Se   22.11087000   20.28499000   17.78569000      0.046170    0.10511300   -0.51572300
Se    3.94751000    2.73870000    5.50585000      0.463418   -0.58568900   -0.38961200
Se    7.71551000    2.63504000   15.40804000     -0.134429   -0.30405100    0.63163600
Se    2.84284000    4.08844000    0.76751000      0.459844    0.35218100    0.30402600
Se    2.45866000   10.85517000   11.77061000     -0.472967   -1.13454900   -0.60484800
Se    0.75377000   12.04678000    3.42018000     -0.543834   -0.16740700   -0.06138600
Se    2.40365000   15.07666000   14.99192000      0.361492    1.05811300   -1.20732100
Se    4.09145000   16.38161000   19.08370000      0.385346    0.31275900   -0.37112700
Se    4.72710000   18.56956000   12.79613000     -0.153891    0.40442200    1.02761500
Se    9.96850000    1.01305000    3.13809000      0.324211   -0.94439200   -0.17925800
Se   11.71208000    2.09792000   14.86246000     -0.595595   -0.24967600   -0.27054200
Se    8.92017000   10.03740000    3.06414000      0.115688    0.12076200   -0.13627300
Se    6.61052000    8.46986000   17.60391000     -0.693452    0.01408400   -0.27848200
Se   11.97493000   13.02800000    3.10385000      0.062284    0.40114000   -0.17616200
Se    9.30607000   13.77769000   11.81722000     -0.456549   -0.72925700    0.16301300
Se    9.28334000   20.96241000    1.81351000     -0.559294   -0.11478100   -0.46589900
Se    9.29975000   18.40897000   13.85890000     -0.407322    0.13418800    0.53329400
Se   19.43114000   22.32686000    7.24507000     -0.433952   -0.14569600    0.38728400
Se   15.30949000    2.39924000   12.13553000      0.038460   -0.07843900    0.82391400
Se   14.79678000    6.72799000    3.34791000      0.281324    0.51126000   -1.13005400
Se   14.80515000    6.20003000   16.08120000      0.325405    0.42300800    0.31724900
Se   15.90729000   12.86081000    2.60618000     -1.242372    0.09918000   -0.86825900
Se   15.01367000   16.68798000   12.90309000      0.028398    0.09714800   -0.56377700
Se   16.18234000   16.77309000    2.42482000      0.071156    0.02616700   -0.10176000
Se   14.77635000   19.37895000   15.11253000     -0.170857    0.74709800   -0.26096800
Se    0.06779000    0.05833000    4.42614000      0.024712   -0.24628500   -0.08679500
Se   22.29531000    0.36932000   13.89229000     -0.117213   -0.42124500    0.01904000
Se   18.85651000    2.30919000    3.77282000      0.259346    0.26410800    0.01614900
Se   19.64904000    9.64478000   13.98196000     -1.860844   -0.04607900   -0.09018200
Se    2.95481000   10.77592000    6.24012000      0.336463    0.47902500   -0.88658500
Se   21.47611000   15.12866000   15.92653000     -0.078390    0.05613000    0.14426700
Se   22.63533000   18.49054000    2.65305000     -0.502315   -0.62115200   -0.37424300
Se   22.29954000   19.43563000   11.03191000     -0.913577    1.46817000    0.32177600
Se    0.38667000    4.94556000    4.83322000     -0.229483    0.20305600   -0.52382300
Se   21.60165000    4.80145000   15.17564000     -0.767573    0.14641800    0.63332500
Se   21.24790000    9.66698000    2.67873000     -1.144830    0.22971700    1.22684800
Se   22.11824000   11.46085000   13.57814000      1.858454    0.58090100   -0.18979000
Se    2.24558000   13.68901000    0.60842000     -0.653461    0.42497600   -0.29602900
Se    2.67845000    1.54795000   13.22398000     -0.712782    0.26139200   -0.29397600
Se    3.79149000   22.45839000    2.87561000     -0.836050    0.78845100   -0.45909700
Se    5.41929000   19.02495000   15.08646000      0.336850    0.78577800   -0.49804500
Se    9.28561000    4.67493000    8.44074000     -0.147767    0.58881900   -0.56558900
Se    8.39803000    5.29320000   13.52723000     -0.200164    0.24348400    0.52021600
Se    5.49885000    6.11664000    4.15366000      0.933420   -0.05565600   -0.48102100
Se    8.08010000   11.22848000   12.22092000      0.101427    0.38221800   -0.80613800
Se    7.79933000   15.42527000    2.68304000      0.313158    1.19284100   -0.29816200
Se   11.78296000   15.64449000   13.33569000     -0.094692   -0.35515800    0.31759500
Se    7.60155000   22.29768000    7.26928000     -0.377877    0.70617200    0.16489100
Se   10.03195000   21.38407000   11.97197000     -1.607801   -0.15036200    0.00005300
Se   12.65239000    0.29635000    3.13345000     -0.389697   -0.53106500    0.30752300
Se   10.04011000    2.08724000   13.06345000     -0.202498    0.61399700   -0.54828000
Se   15.29046000    9.21361000    3.65746000     -0.682530   -0.42558500    0.70758900
Se   11.04529000   11.08500000   13.67491000      0.866640   -0.69294800   -1.11428600
Se   12.62795000   17.04559000    1.61824000      0.830600   -0.36784000   -0.19440400
Se   13.19370000   17.65674000   14.17492000      0.227758    0.26080300    0.08077200
Se   11.98255000   19.84681000    3.64430000     -0.705498    0.04865800    0.28649100
Se   13.90021000    0.16165000   15.24898000      0.330094    0.27072900   -0.32136200
Se   20.15426000    2.88609000    0.64356000      0.729689    1.86097700    0.69211000
Se   17.35316000    6.60248000   12.97918000     -1.037254    0.39369500    0.12496300
Se   18.79616000    7.75915000    4.38596000      0.137153   -0.32624800    0.02363900
Se   20.39575000   13.37371000   12.49658000     -0.469115    1.24288300    0.04246100
Se   22.60895000   15.85944000    2.84283000     -0.252434   -1.06487900    0.26301400
Se   18.50256000   14.74912000    9.58902000      0.249824    0.31830100   -0.66020500
Se   20.06562000   20.69858000    4.70366000     -0.528412    0.21963100   -0.50845100
Se   17.85392000   22.11136000   11.03161000     -0.353349   -0.30977000    0.71596700
