384
23.00800000 23.00800000 19.32000000
Ge    4.91381000    5.45573000   10.68469000      1.154456   -0.70886100   -0.46249600
Ge    3.76664000    8.27363000    2.30639000      0.927680    0.75742300   -0.21279500
Ge    2.14113000    9.70988000    8.33157000     -0.184055   -0.30733800    0.03921400
Ge    5.82542000   11.61010000   18.26827000      0.683652    0.07186300   -0.79795500
Ge    4.60800000   15.19424000    9.61199000     -0.436002    0.94329000   -0.25850900
Ge    7.59969000   18.74673000    2.11652000     -0.748800    0.12387200   -0.58231700
Ge    6.83542000   20.30413000    8.25661000     -1.035629   -0.78391200    0.70061100
Ge    5.50228000    3.31203000    0.04825000     -0.077429   -0.24677300    1.01794600
Ge    8.75999000    5.96756000   11.04249000     -0.547510   -0.44935800    0.39031200
Ge   10.07116000    7.45047000    2.34449000      0.748924    0.06242100    0.11750600
Ge   12.68228000   13.72856000   10.02915000     -0.208225   -0.64543300    0.77535700
Ge   11.72685000   11.57405000   17.61970000      0.284798    0.87947600   -0.41231800
Ge    9.94452000   17.29542000    7.39313000      0.185892    1.61848500   -0.00173600
Ge   14.45125000   17.76822000   18.84856000     -0.321553    0.62045200    1.42744300
Ge   11.02194000    3.39623000    9.74879000      0.058043   -0.83578300    0.56182700
Ge   15.76452000   22.36029000    0.02585000     -0.051694   -0.17056800    0.35012600
Ge   18.61554000    5.23393000   10.59162000      1.940373   -0.33815800    0.43207600
Ge   18.04427000    8.16270000   18.10743000     -0.638843    0.51636900   -0.03600500
Ge   21.04505000   14.55028000    9.73209000     -0.879487   -0.92351600    0.23324600
Ge   16.06268000   10.77966000   19.04125000     -0.472079   -0.01865700    0.41032400
Ge   13.85872000   16.75128000    7.43054000     -0.980251    0.60940800   -2.91674100
Ge   19.74591000   14.38793000    0.07057000     -0.420320    0.43971900    0.57041300
Ge   19.65621000    0.71149000    9.93411000      0.096204   -0.90397300    0.09518100
Ge   17.60809000    2.22243000   17.55522000      1.020083    0.48657300    0.64722600
Ge    0.14238000    8.45656000    9.99490000      0.351725    0.05749200   -0.01921700
Ge   21.92122000    1.81514000    2.26489000      0.474013   -0.09094900    0.08358300
Ge    0.24245000   12.41283000   11.50949000     -0.860132   -1.78013800    0.07366000
Ge   22.36191000   11.28008000    1.09092000      0.817115   -0.10833100   -0.27236600
Ge   22.47639000   16.15029000    7.99766000      1.278190   -0.15766500    0.76246600
Ge    0.63026000   14.71492000   16.61579000     -0.286038    0.04359700    0.32279200
Ge   21.48080000   21.66014000    8.80149000     -0.262905   -0.12568600   -0.79745700
Ge    3.59847000   20.92772000    0.81132000      0.238003    0.16211300   -0.51846300
Ge    6.09254000    8.25477000    8.16359000      0.398782    0.44517200    0.52795900
Ge    1.79049000    6.96677000   17.53321000     -0.190187   -1.10659800    0.27105900
Ge   22.57055000    7.70134000    4.97949000     -0.225358   -0.19473800    0.97749600
Ge    3.11438000   12.11651000   15.73606000      0.353274   -0.13458100   -0.07672100
Ge    6.82155000   15.21751000    4.86994000     -0.458713    0.08721400    1.32009000
Ge    2.25520000   19.25507000   17.87103000      0.730316    1.18737000    0.11345400
Ge    4.12798000   18.81203000    9.53590000      0.020570    0.10137400    0.78361200
Ge    2.13112000   22.58072000   15.30996000      0.593656    1.57034800    0.61637300
Ge    8.77039000    2.23803000    7.47403000     -1.190846   -0.26192100    0.71886300
Ge    8.60753000    3.62473000   17.75110000     -1.190946   -0.49426500    0.08446700
Ge    7.29129000   13.23018000    2.76436000     -0.065270   -1.67215100    0.01049700
Ge    6.98063000    9.22242000    1.64697000     -0.168976   -0.16086400    0.76640100
Ge    5.56393000   17.10827000    7.06424000     -0.071562   -0.55013200   -1.03056300
Ge   10.37803000   14.41041000   18.63826000     -0.539372    0.12385300    1.50348200
Ge   11.01269000   22.67827000    6.11833000     -0.083516   -0.46550100    0.21469200
Ge   10.20724000   22.86878000   14.22643000      0.497541   -0.87589000    1.04656000
Ge   13.40844000    5.66683000   10.32933000     -0.349213    0.52762600    0.82242200
Ge   13.65060000    6.94852000   18.58702000     -1.455472    0.53512300   -0.92499400
Ge   13.43278000    8.20786000    8.17129000     -0.349176    0.43320900   -0.90277700
Ge   15.03986000   13.36418000   15.38389000     -0.719278   -0.20131000   -0.65379800
Ge   13.99319000   17.39012000    3.84251000     -0.155116   -0.46245000   -0.69598000
Ge   14.31024000   19.66529000    2.71563000     -0.747999    0.94104100   -0.69472700
Ge   15.38563000   21.60011000    9.97260000      0.292049   -0.10141500   -0.86610300
Ge   16.11557000    1.15847000   14.57770000      0.431363    1.00003600   -1.28783800
Ge   20.73695000    3.57000000    8.20382000     -0.184279   -0.45883400   -0.59549100
Ge   21.48334000    4.98569000   17.66461000     -0.120438    0.47768200   -0.26466500
Ge   16.37561000   10.17754000    8.66937000     -0.845828    0.41363700    1.66142200
Ge   18.19244000   14.59375000   17.09893000      0.141212    0.01335900   -0.08019800
Ge   18.43591000   16.61906000    3.97560000      0.667275   -0.26051300   -0.48297100
Ge   20.76080000   18.05137000   17.33859000      0.296492   -0.07079300   -0.77377200
Ge   22.20087000    2.65473000    4.88011000     -0.788776   -0.38581100   -0.21489600
Ge   19.81346000    0.61064000    0.05410000     -0.864090    0.93335400   -1.64508900
Ge    5.57501000    3.41481000    7.80170000     -0.262760    0.05347700   -0.42731600
Ge    1.72762000    4.96556000   14.40503000     -0.121283    0.69223500    0.48236300
Ge    2.25825000    6.24268000    3.06283000     -0.528880   -0.57360900    0.36742000
Ge    1.30891000    9.51304000   13.75658000     -0.365019    0.11670200   -0.32741600
Ge    2.16373000   14.02484000    2.98875000     -0.427744    0.57074400    0.53383800
Ge    0.61970000   17.69103000   12.44758000      0.464799   -0.00270900   -0.11546800
Ge    1.09354000    2.13708000    6.57361000      0.511864    0.65582400    0.69415100
Ge    4.99633000   15.59080000   15.36425000     -0.162359    0.11825900   -0.11779700
Ge    9.30436000    3.18387000    2.65248000     -0.595689    0.07628400    0.71445500
Ge   10.72325000    2.28915000   17.25246000      0.262758   -0.87460000   -0.21381400
Ge    9.33707000    8.99405000    5.48828000     -0.034766   -0.13428500   -0.05360200
Ge    9.64458000    8.94002000   14.09052000     -0.533602   -0.91769100    0.24807800
Ge   11.54253000   13.97133000    5.49280000     -0.198119   -0.06524600   -0.59217100
Ge   10.07544000   13.80302000   14.02804000     -0.160512   -0.32102600    0.54686600
Ge    6.84311000   22.29821000    1.68142000     -0.084104   -0.23578600    0.10001600
Ge    8.41175000   18.07369000   17.75767000      0.529504   -0.09085100   -0.04040100
Ge   14.21045000    2.50019000    6.84824000     -0.096057   -0.27034400   -0.38455200
Ge    9.85271000    5.41693000   16.32141000      0.441016    1.12189500   -0.99075000
Ge   14.47865000    6.17747000    5.62562000     -0.164807   -1.07821900    0.58943500
Ge   13.42988000    9.81293000   14.10130000     -0.149992   -0.30463600   -0.11998500
Ge   15.75809000   13.15450000    5.33963000      0.308714    0.58007500    0.14241300
Ge   16.32170000   15.62779000   14.96277000      0.603713    0.65420200   -0.69351300
Ge   10.08865000   18.03123000    3.00879000      0.159649   -0.23711100    0.62049900
Ge   12.85481000   21.24377000   16.51303000     -1.226696   -0.68314900    0.57035500
Ge   17.53678000    4.96379000    3.57933000     -0.167161   -0.35961700    0.84993800
Ge   20.81840000    1.82428000   12.27658000      0.347739   -0.07990400   -0.15638200
Ge   18.36026000    8.66182000    6.59441000      0.488450   -0.37851300    0.58022900
Ge   18.35620000   11.29583000   15.58848000     -1.577787   -1.29550800   -0.90176400
Ge    1.18841000   16.22523000    0.52060000      0.320608    0.22873100    0.61411900
Ge   18.19916000   14.75886000   12.57906000     -0.471007   -0.34478600   -0.02156800
Ge   22.73064000   20.44723000    4.44821000     -0.346882   -0.25241600    0.01508600
Ge   22.32995000   19.95971000   15.23987000      1.780336   -0.58928900    1.23603900
Ge    6.45369000    2.27290000    3.77794000     -0.596995    0.31984000    0.28066200
Ge    4.52363000    4.42193000   15.93562000      1.691344   -0.10970900   -0.38225500
Ge    3.84845000    8.90448000    5.07036000      0.352045    1.67035700   -1.35688900
Ge    4.22682000    8.25139000   13.33819000      0.622166    0.43273700    0.69766100
Ge    4.53403000   14.11239000    0.66759000      0.794413   -0.25701000    0.06778700
Ge    2.57271000   12.91833000   13.18086000      1.819136    0.13479900    0.87295700
Ge    4.23240000   22.87460000    6.18412000      1.165982    0.90160200   -0.97704200
Ge    7.63571000   20.18643000   12.04416000     -0.707829    0.34647000   -0.52335400
Ge   10.98611000    4.45557000    6.15851000      0.408273    0.21796600   -0.36663600
Ge    7.48444000    1.13425000   12.87566000      0.342964   -0.11740100    0.45091000
Ge   12.49585000   10.23963000    4.33535000     -0.894136    0.28431800    0.40057600
Ge   14.03166000    7.12381000   13.78343000      0.120177    0.54681900    0.36058500
Ge   12.47577000   14.39915000    1.17260000     -0.270498    0.13188800   -0.73788500
Ge    9.26276000   16.22528000   10.87036000      0.235667   -0.46799200    0.66207500
Ge   11.52475000   22.09380000    0.98940000     -0.156219   -0.42366400   -0.64977100
Ge   11.33524000   19.34466000   11.93083000      1.428520   -1.93444200    0.20224200
Ge   22.58972000   22.85655000   18.23265000      0.021017    0.89012900   -0.24003800
Ge   15.65899000    4.38716000   13.57036000     -0.406017   -0.22901000   -0.89022900
Ge   17.07145000    8.52205000    2.45751000      2.999008   -1.06059300   -1.85600200
Ge   16.77855000    6.87541000    9.98251000     -1.078191    0.47935500   -0.24988100
Ge   18.02970000   12.06717000    3.76296000     -0.229882   -0.07524200   -0.86336700
Ge   19.44342000   15.07181000    7.04976000     -1.738780   -1.05686400   -0.05625500
Ge   17.26148000   19.28248000    2.86804000     -1.046803   -0.01664500    0.14865900
Ge   16.28540000   19.16428000   12.38048000     -1.729735    0.82761500    1.00021000
Ge    1.29733000    0.11691000    1.79326000      0.349192   -0.28764700    0.44484000
Ge   22.82230000   22.33481000   11.05141000     -0.660863    0.48724700    0.59778300
Ge   20.11434000    5.15193000    4.40609000     -0.275136    0.20090300   -0.14938300
Ge   20.32159000   10.89350000   11.65851000     -0.110299    0.18640700    0.48995400
Ge   21.78173000   13.52518000    4.10836000     -0.344627   -0.05629900   -0.22538200
Ge    0.80953000   18.51480000    8.45410000      0.609753   -0.68539500    0.53944100
Ge    2.72916000   19.98512000    4.11041000      0.310050    0.52677000   -0.30679900
Ge   20.31540000   18.55992000   12.28605000     -0.562670   -0.70495100    0.22093800
Se    2.02288000   22.76323000   18.36719000     -0.080003    0.02785300   -0.05344900
Se    0.96462000    2.46742000   11.79820000      0.671058   -0.46756700   -0.09005700
Se    0.00355000    4.89824000    2.14832000      1.636844   -0.40808200   -0.26050900
Se   22.56872000    8.22076000   12.37798000      0.071951    0.10113600   -0.47927700
Se    4.01220000   10.72483000    0.21774000     -0.377686   -0.23140000    1.01831500
Se    1.55359000   14.27130000   11.49106000      0.202455    1.41702000   -0.36204800
Se    3.12658000   17.94971000    1.14215000     -0.589114   -0.80691400    0.33874100
Se    1.22643000   21.05803000    9.69657000      1.605760   -0.17118700   -0.51154600
Se    7.59084000    2.27072000    0.98243000      0.563402   -0.70559500   -0.14182900
Se    5.41453000    1.98781000   11.79565000     -0.003392    0.49591700   -0.40988800
Se    7.63589000    7.44859000    3.50028000     -0.736740    0.00844900    0.04367600
Se   10.14914000    8.01350000   11.48845000      0.032845   -0.24862500    1.13093500
Se    8.34022000   12.29096000    0.53077000     -0.353962    0.28807200    0.33786300
Se    5.05793000   13.78779000   12.64314000     -0.195947   -0.13940700    0.77655100
Se    5.30583000   19.97816000    2.57361000      0.988562    0.10683300   -0.26390600
Se    9.53681000   18.58731000   10.42015000     -0.497613    0.46446400   -0.57306400
Se   13.95282000    3.79723000    2.11591000     -0.682033    1.20776700   -0.84763700
Se   12.09031000   22.89841000   11.31045000     -0.190424    0.21611800   -0.49131000
Se    8.42963000    8.63903000   19.00614000      0.652753   -0.34971100   -0.94548500
Se   10.22051000    9.28488000    9.60170000     -0.479821    0.81544900   -1.19777400
Se   13.57132000   12.47622000   19.14757000      0.069933   -0.10669200    0.22523400
Se   13.37814000   11.20278000    8.51639000      0.610947   -0.11399700   -0.19785000
Se   16.04373000   14.57881000    0.93682000     -0.208212    0.13762300    0.58915700
Se   12.13363000   18.14017000    8.11574000     -0.699000    0.06724400    0.32593400
Se   16.02637000    3.03845000    2.86473000      1.067034   -0.07437600    0.15765500
Se   13.93348000    0.72252000   10.25359000      0.570841    0.33687200   -0.31324300
Se   18.57135000    4.75244000   17.84526000      0.862595   -0.98441200    1.91118300
Se   20.98202000    8.40178000    8.78308000     -0.076208   -0.00659100    0.15260800
Se   18.11045000   10.56429000    1.37753000      0.323842    0.16040700    0.06264900
Se   17.24339000   15.71462000    5.85461000      0.266347   -0.35039800    0.76979100
Se   20.31323000   17.27081000    0.28052000      0.008683   -0.77840000    1.24506800
Se   17.97978000   18.30569000   11.04250000      1.867399   -0.77948200   -0.81718400
Se    5.16500000    4.29221000    2.40205000      0.217630   -0.31232100    0.52997600
Se    2.63648000    6.68311000   12.64970000     -0.726874   -0.47075300   -1.66089500
Se    4.96785000   10.61544000    2.87552000     -0.635079   -0.63672000   -0.98461000
Se    5.94673000   13.49461000   10.45985000     -0.271194   -0.84576900    0.73831100
Se    4.75199000   13.82195000    3.41367000      0.276475    0.11934400   -0.14052600
Se    3.18726000   16.76675000   11.02423000      0.139035   -0.20339400   -0.61058900
Se    4.90573000    1.56469000   17.79106000     -0.079742   -0.59492800    0.12024800
Se    5.93801000   21.51297000   10.40891000      0.901970   -0.92354900   -0.13537800
Se   11.41973000    7.67215000    4.61138000     -0.055155   -0.08329200   -0.02658400
Se    6.88901000    3.41489000   10.31422000     -0.760124    0.39525600    0.57500600
Se    9.80475000   11.56234000   15.58211000     -0.181881   -0.41863900    0.84669100
Se    8.06648000   10.16159000    8.87148000      0.052247   -0.58940800    0.19487000
Se    9.57584000   16.46853000    0.19796000     -0.443014    0.71096200   -0.82260300
Se   11.90164000   16.14037000   11.10176000     -0.072433    0.13402700   -1.87777900
Se   14.38670000    0.94801000    1.93624000      0.678544   -0.54763900   -0.76429200
Se   12.68519000   21.68673000   13.77991000      0.361071    0.27801200    0.29988900
Se   12.08629000    8.72760000    1.00136000     -0.240379    0.27484100    0.00726300
Se   19.68607000    6.76707000   12.63496000      0.389580    0.27076200   -0.48643700
Se   15.75410000    7.93574000    0.10866000      0.761822    0.83176000   -0.04379200
Se   13.95771000   10.97623000   11.99736000      0.086815    0.60524200   -0.15971200
Se   19.26328000   14.11438000    3.08204000      0.344241    0.17635300   -0.51070900
Se   14.87602000   13.93351000    8.87430000     -0.129686   -1.64380700   -0.42342900
Se   17.55915000    1.20859000    0.71714000     -0.418481   -0.00335400   -0.01664200
Se   14.41755000   19.45697000   10.58838000      0.228700    0.20525600    0.54080300
Se   20.95321000   22.59244000    1.75320000      0.725639   -1.10529300    1.12481500
Se   21.47557000    4.82566000   10.24332000     -0.141090    0.66336400    0.48690700
Se   20.87053000    5.67199000    2.03161000     -1.044355    0.54815200    0.73328800
Se   22.01883000   12.36733000    9.38918000      0.228754   -0.84175700    0.14439600
Se   22.00207000   13.86927000    0.05981000      0.098592   -0.32220900    0.16924400
Se   21.92850000   16.48926000   10.62376000      0.398661    1.01696900    1.07866200
Se    0.92398000   20.45633000    1.67803000      0.344722    0.47691300    0.35211200
Se   20.74512000   21.26953000   14.16231000     -1.203958    0.74273400   -0.41140900
Se    3.81377000    5.10994000    8.60846000      0.093624   -0.11054900    0.09598300
Se   22.90993000    6.73764000   15.14912000     -0.071901   -1.00626500    0.41443500
Se    4.22599000    9.41874000    9.60719000      0.174736   -0.39286800   -0.46227300
Se    1.04940000    9.18324000   17.50604000     -0.246462    0.33972300    0.97433300
Se    2.77961000   17.64622000    6.75690000     -0.062730    0.09318700    0.49035700
Se   22.32483000   17.48009000   14.67658000     -0.000278    0.61548300   -0.17947400
Se    4.58420000   22.47462000   13.61560000     -0.005967   -0.12369800   -0.19043400
Se    8.26798000    0.78697000   16.76091000      0.196515    0.24728600   -0.22955000
Se    8.22310000    3.76041000    5.30166000     -0.274742    0.40333100   -1.46648700
Se    6.00592000    5.15120000   17.99843000      0.493105    0.20740600   -0.40304700
Se    6.51440000    9.92618000    5.72924000      0.101336   -1.68043900   -0.58942300
Se    3.55185000    6.61204000   15.75657000     -0.158486    0.92193200   -0.49919900
Se    6.28292000   17.06688000    9.42242000      0.085580    0.42589300    0.42343900
Se    6.92935000   16.09846000   17.12394000     -0.267125   -0.01630600    0.05164500
Se    9.08350000   19.71886000    7.36719000      0.240719   -0.51581400   -0.07891600
Se    5.37127000   22.34588000   18.55498000      0.783326   -0.47530700    0.42179100
Se   16.63922000    2.03160000    6.30938000     -0.165008    0.20784800    0.22741300
Se   13.50466000    4.66516000   14.90432000     -0.677442   -1.61234200   -0.34404700
Se   13.96660000    8.08132000   10.53652000      0.314321   -0.58221200    0.91989700
Se   13.72890000   11.13775000   16.12375000      0.275053   -0.20806100    0.25133800
Se   13.83243000   15.00883000    5.32880000      0.066812    0.65898700    0.52921200
Se   13.74072000   16.18135000   17.36075000     -0.563301   -0.95832600   -1.11518000
Se   13.54093000   22.21244000    7.72584000     -0.548114   -0.24254400    0.13595200
Se   17.83079000   20.15712000   19.03093000     -1.196977    0.05193900   -2.11307100
Se   18.49440000    2.75040000    9.56669000     -0.485206    0.00021500   -0.40535100
Se   21.27295000    2.59521000   17.42173000      0.473701   -0.80801900    0.29111600
Se   17.32396000   10.05851000   11.27385000      0.354382    0.69122600   -0.70617200
Se   16.47159000    9.78055000   16.75479000      1.370854   -0.12117700   -0.03099200
Se   15.28675000   16.16344000    8.99466000      2.192686    1.14027600    2.13459600
Se   19.05576000   16.01967000   14.51892000     -1.001742    0.04341100   -0.00752900
Se   18.79620000   17.46209000    8.90392000      0.021096    0.19753700    0.14535800
Se   19.03596000   20.09216000    1.52587000      1.996215    0.31999600    1.42755600
Se    4.49607000    1.02069000    8.39841000      0.521837   -0.25226600    0.92194600
Se    1.60602000    3.12294000   18.70188000     -0.825465   -0.16341900   -0.21401800
Se    6.43885000    7.38354000   10.79315000      0.002229   -0.24007600    0.15043700
Se   22.90559000    8.09022000    0.44149000      0.548773    0.58509400   -1.01740800
Se    4.63009000   14.64865000    7.24259000     -0.071667    0.45175000    0.12201100
Se    4.56363000   13.73324000   17.03826000     -0.301088   -0.35011000   -0.10241100
Se    2.76636000   20.35332000   12.12601000      0.628007   -1.34678500   -0.54421300
Se    0.89135000   17.30159000   17.61722000     -1.121255   -0.84776300   -0.54619200
Se    9.34437000    1.43065000    9.92856000      0.276288    0.06889000    0.79992700
Se   10.69361000    4.65795000    1.56939000      0.217978    0.45017900   -0.27573900
Se   11.67080000    4.94441000   11.87172000      0.121308   -0.39483600   -0.32456000
Se    4.88585000    7.55123000   19.15682000     -0.049546   -0.02295700    0.25032500
Se   11.01240000   14.31953000    8.07162000      0.840963   -1.18768100    0.03464000
Se    8.49621000   13.17104000   17.49464000     -0.022245   -0.23215500    0.20117900
Se   11.38361000   21.09904000    8.40920000      0.171635    1.00886400   -0.61934700
Se   11.74886000   14.34221000   16.81296000      1.045268    0.25673000   -1.29725600
Se   18.61672000   20.38632000    8.51369000     -0.417697   -0.15930800    0.72319600
Se   14.86949000    5.12431000    0.09205000      0.715723   -1.76388700    0.63957200
Se   15.49445000    4.60357000   10.13002000      0.661457   -0.10083400    0.05746400
Se   10.67043000   10.60596000    0.40313000      0.124236   -0.70141500    0.45401300
Se   16.45276000   12.41011000   10.47990000      0.466385   -1.13154800   -0.29962200
Se   16.05563000   13.31421000   17.59517000      0.886151   -0.00645100    0.79422300
Se   15.22885000   18.89721000    6.64760000      0.229476   -0.41766700   -0.38442100
Se   16.01443000   21.55746000    2.52802000     -0.300834    0.06281700    0.23709600
Se   22.44207000    1.43649000    8.44259000     -0.871603   -0.61103900    0.41006500
Se   22.85959000    1.55088000   15.79898000      0.542945    0.42419100    1.42514300
Se   19.35362000    6.24219000    7.95799000     -0.025854    0.09861000    0.03198600
Se   20.65933000    7.62319000   19.04606000      0.169150    1.37325300   -0.33331500
Se   21.39601000    9.58899000    6.68202000     -0.559307   -0.17461500    0.22009900
Se   20.51153000   10.09085000   18.11229000     -0.425335   -0.71273700   -0.19897100
Se   20.69094000   17.01750000    6.61335000     -0.405670    1.00301300   -1.00126800
Se   18.33842000   17.60660000   18.36063000     -0.144590   -0.10943800   -0.37648900
Se    2.35038000    1.82230000    8.73203000     -0.715954   -0.12197900    0.66418500
Se    2.66201000    3.06415000   16.53357000     -0.734279   -0.22328200    0.04411000
Se    1.41465000    7.58455000    7.10070000      0.024728   -0.37632900    0.11094500
Se   21.30671000   10.10099000   15.68576000      0.252680   -1.06997000    0.44314800
Se    1.51435000   14.71373000    7.91377000     -0.098337    0.32129900   -0.44351700
Se    0.83466000   12.34544000   16.50538000     -0.145747   -0.71069600    0.67626500
Se    1.32098000   17.84572000    4.61333000      0.010287    0.14485000    0.00876100
Se    2.15503000   20.26612000   15.19052000     -1.094119   -1.62591800    0.19605000
Se    8.41194000   22.76659000    4.83830000      0.078315    0.29250900    0.47194800
Se   12.24998000    1.06018000   18.72374000     -0.121958   -0.06227200   -0.15835600
Se    7.64895000    5.72267000    7.02204000     -0.942951    0.32408500   -0.59454800
Se    7.53785000    7.20592000   14.53307000      0.337970   -0.24523400   -0.32455500
Se    8.19368000   13.00883000    5.62652000      0.134305    0.68079000   -0.89031100
Se    7.54409000   16.65103000   13.29860000     -0.642654   -0.56346100    0.01176200
Se    3.79948000   19.97257000    6.83744000      0.168783    0.20443900   -0.27285900
Se    7.94741000   14.99523000   15.08336000      0.049548    0.11344000   -0.07143900
Se   13.92156000   20.49228000    5.48425000     -0.137979   -0.13392700    0.54882200
Se   15.48200000    1.51147000   17.09169000     -1.509277    0.17304800    0.32873400
Se   12.84589000    5.41518000    8.06384000     -0.272318   -0.02460100   -1.03093900
Se   11.17297000    7.42852000   15.55322000     -0.110742    0.19821100   -0.12890900
Se   14.55596000   10.99950000    5.84981000     -1.083930   -0.52926000    0.59781600
Se   13.31762000   13.27787000   12.55446000      0.301142   -0.72927700   -0.02528900
Se   10.36279000   16.34146000    5.28508000     -0.093446   -0.52426400   -1.26521800
Se   13.31999000   20.22406000    0.17406000      0.193817    0.36031700    0.11537600
Se   20.00842000    1.61363000    5.81290000     -0.166633    0.92329400   -0.64655900
Se   18.99064000    0.45306000   16.79302000      0.624005   -0.75226300    0.07946400
Se   16.75342000    4.83006000    6.13122000      0.181993   -0.16457400   -0.59774500
Se   18.28240000    6.38988000   16.37937000     -0.448550    1.23336000   -1.30248100
Se   20.26349000   11.21810000    4.71048000      1.723167   -0.45929700   -0.97966400
Se   16.79705000   12.26969000   13.95529000      0.280167    0.42246200   -0.05112000
Se   18.19991000   19.28353000    5.09666000      0.056491   -0.08992400    0.71234200
Se   17.40379000   22.32624000   13.77400000      0.673361   -0.49730700   -0.47160100
Se    3.88044000    6.78133000    5.80112000     -1.031952   -1.66229900    2.03237500
Se    3.96795000    4.29771000   12.56109000      0.360259    0.00638100    0.06648400
Se    1.32804000    8.59924000    3.49535000      0.484249    0.34108200   -0.54691700
Se    4.33215000   10.10725000   16.64268000     -0.621308    0.58181600   -0.29150200
Se    6.22821000   12.08838000    6.40510000     -1.015392    0.52901300    0.93444900
Se    4.79281000   18.30439000   17.23415000     -0.817492   -0.30974400    0.31878800
Se    1.97403000   21.84258000    5.96635000     -0.730836   -0.09131700    0.24603000
Se    6.85204000   21.63024000   14.09563000     -0.161725    0.91939500    0.31609000
Se   11.15671000    2.08922000    7.25368000      0.965667   -0.29998500   -0.43689000
Se   12.02088000    4.41845000   17.12782000     -0.196009    0.51005400    0.64735200
Se   10.68497000   10.86659000    6.28498000      0.850658    0.21016300   -0.35425100
Se    7.21537000   10.72509000   14.15752000     -0.099046   -0.19529900    0.87184900
Se    8.99693000   15.33385000    8.48186000     -1.081121    0.05246800    0.12597500
Se   10.12419000   17.58827000   15.85018000     -0.198906    0.16954000    0.12174700
Se    8.02322000   18.84024000    4.45101000      0.037405   -0.14125000    0.28744100
Se   10.17335000   21.28485000   16.67192000      0.688151    0.50638500   -0.30628400
Se   13.27820000    3.66399000    4.61999000     -0.434661    0.58195600    1.43214200
Se   17.64203000    3.70412000   14.83420000      0.631113   -0.76515800    0.01376600
Se   15.88495000    7.53614000    7.51462000      0.289217    0.49656400   -0.14063800
Se   16.44943000    8.46059000   14.08694000     -0.384434    0.76141000    0.04634200
Se   17.40007000   11.29172000    6.72799000      0.732468    0.40527100   -0.37322700
Se   16.29016000   17.74547000   16.32707000     -0.284952    0.29655600    0.19420200
Se   15.09506000    0.46492000    5.40086000      0.252125    0.30363700    0.38539200
Se   18.69174000    3.14722000   12.55974000     -1.202191   -0.23760000    0.30770100
Se    0.00364000    4.57508000    7.35843000      0.635912   -0.00641000   -0.55856100
Se   21.96698000    4.03212000   12.55687000      0.550541   -0.02353200   -0.36787600
Se   19.73779000   12.53282000    6.99505000     -0.060212    0.22616200    0.01560000
Se   19.87307000   12.75812000   16.52946000      0.516135    0.93762300    0.53444500
Se   22.28133000   13.69549000    6.51699000      0.218729    0.01079300    0.30478600
Se   19.25886000   19.26815000   14.41522000     -0.077115    0.00904800   -0.22211100
Se   22.33377000   19.68118000    7.05627000     -0.836579    0.80864000   -0.19860300
Se   22.06546000   20.53593000   17.91002000     -0.306541   -1.38761600   -1.11300300
Se    4.05917000    2.69406000    5.53599000      0.378599   -0.63912600   -0.45614900
Se    7.56715000    2.71185000   15.36416000      0.051180   -0.59290900    0.39750400
Se    3.01969000    4.23999000    0.77670000     -0.060211    0.25730000    0.16565500
Se    2.40529000   10.78179000   11.80580000     -0.476575   -0.09974800    0.02950900
Se    0.70155000   12.03986000    3.40753000     -0.133028   -0.12469200   -0.27627100
Se    2.15563000   15.10956000   14.96494000      0.972441    1.02838200   -1.32126900
Se    4.04453000   16.42284000   18.91880000      0.570527   -0.40525000    0.56243900
Se    4.68732000   18.58579000   12.81847000     -0.929046    0.39092300    0.46765600
Se    9.99145000    0.88939000    3.23848000     -0.445369    0.22947300   -0.15275100
Se   11.76806000    2.15451000   14.83836000     -0.834430   -0.57204900   -0.06333100
Se    8.96395000   10.02836000    3.03864000      0.329821    0.24420300   -0.32879800
Se    6.55842000    8.35355000   17.59038000      0.111031   -0.02786700    0.37272900
Se   12.07495000   13.04337000    3.05655000     -0.204074   -0.16948700    0.61756500
Se    9.14216000   13.66932000   11.86952000     -0.483133   -0.88666900   -0.72277200
Se    9.20283000   20.93131000    1.87239000     -0.198287    0.11530600   -0.48016200
Se    9.05871000   18.39014000   13.82854000      0.758889    0.48868200    1.05033700
Se   19.44295000   22.30962000    7.43361000     -0.088953    0.28975200   -0.01377800
Se   15.35013000    2.31531000   12.22022000      0.079399   -0.10018100    1.01699800
Se   14.84485000    6.92036000    3.31352000     -0.235963   -1.31832900   -0.99795100
Se   14.74068000    6.12872000   16.14201000      1.012313    1.58420400    0.48468700
Se   15.90974000   12.89787000    2.64147000     -0.641987    0.14681900   -0.21463800
Se   15.10237000   16.80260000   12.75294000      0.749384   -0.61197000    0.17964400
Se   16.34446000   16.69061000    2.38197000     -0.267693    0.36962800   -0.08303300
Se   15.07759000   19.42835000   15.24740000     -0.631384    0.22229000   -0.50343000
Se    0.08545000    0.10118000    4.47855000      0.073434   -0.39426500   -0.13784300
Se   22.27494000    0.45206000   13.91886000     -0.565948   -0.69322900   -1.46552300
Se   18.78144000    2.14485000    3.70121000      0.768942    0.29492800    0.51482000
Se   19.49811000    9.52790000   14.02119000     -0.473850    0.46774200    0.79061800
Se    3.04604000   10.67669000    6.24990000     -0.575331    1.30092400    0.36226600
Se   21.38304000   15.11340000   15.96726000     -0.465901    0.33733800   -0.03098700
Se   22.73222000   18.26532000    2.61989000     -0.256442    0.28084900    0.00790400
Se   22.34540000   19.43237000   11.00200000     -0.389875    0.97219500    0.27358600
Se    0.59035000    4.98450000    4.74408000     -0.296337    0.36365500    0.04317400
Se   21.33834000    4.78244000   15.13309000      0.390133    1.10356900    0.54826800
Se   21.29484000    9.78965000    2.72551000     -1.016948    0.17047200    0.74944300
Se   22.03640000   11.50409000   13.67910000      1.292855    0.72139900   -0.89392400
Se    2.10912000   13.71024000    0.51697000      0.015668    0.03865800   -0.17764200
Se    2.62628000    1.55837000   13.35006000     -0.377289    0.19125900   -0.43884100
Se    3.71459000   22.48043000    2.74094000     -0.739029    0.98790000   -0.08162300
Se    5.28839000   19.08770000   15.11981000      1.086517    1.22947200   -1.24139000
Se    9.37139000    4.79209000    8.39124000      0.088912    0.33779200    0.18566000
Se    8.53492000    5.19404000   13.66039000     -0.226786    0.50515500    0.28107800
Se    5.51764000    6.21299000    4.11990000      1.079081   -0.19703000   -1.11992300
Se    7.92449000   11.15426000   12.12454000      0.378033    0.51906100   -1.27333600
Se    7.83990000   15.46971000    2.79127000      0.961400    1.46873500   -1.34072500
Se   11.60801000   15.53871000   13.27762000      0.855274    0.83752200    1.33934000
Se    7.50337000   22.26295000    7.23744000     -0.001496    1.55953000   -0.42533200
Se   10.09502000   21.25729000   12.02403000     -2.573612    1.54055600    0.17896800
Se   12.43797000    0.23120000    3.04003000      0.519106   -0.10750000    0.41329900
Se   10.12308000    2.11677000   13.02058000     -0.172136    0.57194600   -0.40572800
Se   15.28386000    9.17044000    3.58582000     -1.988326    1.96918200    1.68649100
Se   11.24240000   10.93920000   13.68900000     -0.337293    0.09741200   -0.57238300
Se   12.50930000   17.13106000    1.54999000      1.062116   -0.65329000    0.28048600
Se   13.37047000   17.67367000   13.96877000     -0.072099    0.51477400    0.99793100
Se   11.59316000   19.85595000    3.73203000      0.494118    0.28548700    0.19223100
Se   14.03572000    0.14444000   15.34154000     -0.872779   -0.43350200   -0.25770100
Se   20.44933000    3.01681000    0.64925000     -0.400702   -0.26867400   -0.47933100
Se   17.39206000    6.64608000   13.04042000     -0.462799   -0.92871300   -0.75777400
Se   18.71472000    7.71093000    4.37476000      0.206806   -0.14694600   -0.22355600
Se   20.30368000   13.59314000   12.37144000      0.396039   -0.65520800   -0.47113200
Se   22.80451000   15.84513000    2.76216000     -0.462904   -1.27847200   -0.01526500
Se   18.50999000   14.92696000    9.58954000      0.124929    0.29946700   -0.88414200
Se   20.07289000   20.64483000    4.75998000      0.080691    0.70831800   -0.44105100
Se   17.64449000   21.99078000   11.15886000      0.220775    0.27610300    0.70055000
