384
23.00800000 23.00800000 19.32000000
Ge    5.09552000    5.01906000   11.09641000      0.076041    0.71336200    0.50124700
Ge    4.99478000    5.58983000    1.96946000      1.097407   -0.54874000   -0.89774500
Ge    1.03723000   11.90315000    7.97698000      0.541527    0.61153600    0.00391300
Ge    6.79813000   11.20058000   17.86466000     -0.446672    0.73778500   -0.48271400
Ge    4.28809000   15.04708000   10.11653000      0.786414   -1.04036800   -0.87468700
Ge    8.10746000   18.72764000    1.04626000      0.682119    0.48152800    0.21287300
Ge    9.13498000   20.44295000    9.53190000     -0.394095    0.59680000   -0.42223300
Ge    4.49892000    1.70659000    0.05535000      0.659332   -0.59921300    0.14805100
Ge    8.75720000    5.19609000   11.19454000      0.401585    0.14134700   -0.44676500
Ge   11.84470000    5.14236000    0.58313000     -0.247063    0.12562500   -0.29871700
Ge   10.86115000   11.22385000    9.04302000      0.222217    0.76221000    0.95880100
Ge   10.70888000   12.45511000   17.66923000     -0.923180   -0.21954200   -1.58525000
Ge   10.14098000   16.75471000    8.18682000      0.902895    1.02640500    0.09604500
Ge   12.15446000   14.65290000    0.15848000      1.253055    0.51617600    0.66412800
Ge   10.57313000    1.59953000   10.35516000     -0.567867   -0.13684900   -0.19553700
Ge   15.09143000   21.26739000    0.58236000      0.235308    0.89742500    0.12337000
Ge   19.16123000    5.72108000   10.16629000      0.131378    0.05209900   -0.89378300
Ge   18.80291000    8.94143000   16.05347000      0.408709   -0.40456300    0.19469900
Ge   21.13580000   14.09010000   10.34818000      0.382406    0.57544300    0.95577900
Ge   16.07971000   10.84890000   18.79458000      0.764291    0.49043200   -0.43770600
Ge   14.01439000   16.45525000    8.70229000     -0.030187    0.79845800    0.15015700
Ge   17.84759000   15.57931000    1.36813000      0.554215    0.27352400   -0.40648100
Ge   18.15946000    1.13114000    9.31069000     -0.199345   -0.35205500   -0.10329800
Ge   18.12370000    2.38027000   19.28391000     -0.526301   -0.71766300   -0.31152100
Ge   22.87003000    5.48396000    9.79548000     -0.502866   -0.43641300    0.00915100
Ge   19.98186000    4.11925000    1.07321000     -0.114449    0.18016900    0.07166000
Ge    0.39496000    9.72237000    9.43210000     -0.073979   -0.67994600    0.41640700
Ge    0.77149000   11.77725000   18.76652000      0.638218    0.24643800   -0.25568700
Ge   21.76283000   15.61219000    8.13019000     -0.030871    1.08058800    0.37593200
Ge    2.16392000   16.54686000   17.89710000      1.714897   -1.48778000   -0.92982800
Ge   20.56599000   21.80603000    9.46239000      0.243737    0.05625900    0.49159400
Ge    1.09599000   22.10261000    0.47922000      1.119224   -0.50949600   -1.15658100
Ge    5.20630000    9.29380000    8.61553000     -0.068099   -1.28120700   -0.32711900
Ge    0.65868000    6.16069000   18.96750000      0.077343    1.02205900   -0.33322000
Ge    0.96278000    8.85972000    5.12687000      0.905753   -1.34997800   -0.89344200
Ge    4.49542000   13.83393000   16.79958000     -0.073536   -0.69601400   -0.59410300
Ge    4.46249000   18.36512000    2.93665000     -0.778649   -0.43370200    0.44319600
Ge    1.79171000   19.36672000   18.51298000      0.221728    0.40972300   -0.52343100
Ge    5.63600000   18.66865000   10.11532000     -0.387398    0.43885500   -0.44297200
Ge    4.02082000    0.28876000   16.77402000     -0.125419   -0.08770300    0.85262200
Ge    9.04558000    3.71747000    7.61680000      0.266924    0.65807900   -0.91991300
Ge    7.71389000    5.82443000   17.17984000     -0.203446   -0.00118100    0.11141500
Ge    6.80663000   13.39155000    4.34391000      0.170110   -1.34464600    0.09738000
Ge    8.51504000    7.99480000    1.15894000     -0.395204   -0.08248400   -0.42330800
Ge    6.26452000   17.13764000    7.16438000      0.230006   -0.75679600    0.10918600
Ge    8.92326000   16.32568000   16.79354000      0.880816   -1.52579300    0.15570100
Ge   10.67646000   22.69706000    5.06135000      0.297535   -0.53483200    0.84068200
Ge   10.79486000   21.68175000   14.19999000      0.814957   -0.08803000    0.18086600
Ge   13.16376000    6.47584000    8.44089000     -0.679657   -0.37647600   -0.84542700
Ge   13.37788000    6.32426000   16.12967000      1.379148   -0.33284000    1.36594200
Ge   13.63116000    9.93182000    7.55291000      0.236033   -0.11656300   -0.72092200
Ge   15.50345000   12.95801000   15.92806000     -0.136655    0.02364600   -0.38207100
Ge   12.82005000   17.01533000    5.53756000      1.435768   -0.62596800   -0.49296100
Ge   13.81398000   17.82738000   18.68510000      0.270694    0.48170300    0.69407800
Ge   13.76954000   22.32206000    8.55269000     -0.111476    0.69752900   -0.04189800
Ge   15.64403000    1.58442000   14.51299000      0.514554   -0.02284600   -0.24064600
Ge   20.46972000    3.50540000    6.51439000     -0.970535    0.61218500   -0.51027900
Ge   20.19783000    5.71232000   16.86626000     -0.065284   -0.32129800   -0.72041300
Ge   17.66985000   10.87465000    7.22506000     -0.583691    0.31172500   -0.82293900
Ge   20.02148000   13.43901000   17.48540000      0.145896   -0.38642500    1.44384500
Ge   18.31608000   16.24160000    5.69202000     -0.661870    0.34178100    0.30636800
Ge   18.23287000   20.48823000   18.00962000      0.939974    0.61510400   -0.49212200
Ge   21.72122000    1.24831000    7.50226000      0.315698    0.15579400   -0.01775200
Ge   19.33913000   21.96358000    0.90287000     -2.022926   -1.44925400   -0.96473700
Ge    5.65905000    2.96096000    7.81780000     -0.422822   -0.06010300   -1.49781100
Ge    4.85927000    4.61080000   15.43837000     -0.260626   -0.73460300    0.50990500
Ge    3.05103000    7.00190000    3.87656000     -0.336490   -0.18022000    0.75911700
Ge    2.89507000   10.13840000   13.09427000      0.282885   -0.48811900    0.27366200
Ge    1.52104000   15.46481000    3.54598000      0.357946    1.14909800    0.46389200
Ge    1.08916000   18.94355000   14.57876000     -0.455674    0.35747300   -0.30870200
Ge    2.22021000    1.26785000    8.19192000      0.557112    0.29630400    0.31695500
Ge    5.83059000   18.89994000   15.73267000      0.101713   -0.33932500    0.25833800
Ge    9.12869000    3.29250000    3.02744000     -0.186892    0.52445800   -0.52487100
Ge    9.79818000    1.60646000   15.36584000     -0.636824   -0.70391400    0.85107300
Ge    8.80833000    9.84183000    5.37025000     -0.977423   -0.41936300   -0.43000000
Ge   10.14732000    9.93003000   14.79469000     -0.277069    0.63435400   -1.07010900
Ge   10.57579000   14.30207000    4.96388000     -0.382020   -0.81816200    0.39065600
Ge   12.74231000   12.20252000   13.45554000     -0.661995   -1.42108500    0.77395800
Ge    6.20384000   21.54979000    2.61359000      0.131171    0.36011600    0.21713500
Ge    8.95806000   18.58986000   15.62862000      0.293054    0.57155200   -0.58409100
Ge   13.67405000    1.38593000    6.44027000     -0.316012    0.27141400   -0.19737600
Ge   11.68716000    4.13948000   15.13247000      0.601405   -0.09749700    0.12055200
Ge   15.50346000    6.44300000    6.19934000      0.143380    0.27980300    0.03702800
Ge   14.60674000    8.91512000   14.74652000      0.107127    0.81218800    0.03780300
Ge   14.99739000   13.87853000    5.31563000      0.540773   -0.22345500   -0.01016000
Ge   14.48053000   16.37233000   14.67627000      0.600596    0.23347500   -0.59244900
Ge   11.73848000   18.01063000    3.24829000     -0.069376    0.60491500   -0.41014500
Ge   10.35229000   21.53513000   17.09386000     -0.838506    0.77384200   -0.39756600
Ge   18.03250000    4.80878000    3.66585000      0.428034    0.36887600    0.65588400
Ge   20.54521000    2.27025000   12.65622000      1.291784    0.61051400   -0.40647500
Ge   20.07387000    7.81201000    5.97669000      0.002385    0.40906500    0.22061000
Ge   18.80922000   11.52798000   13.88587000     -0.562739    0.66211600   -0.51009400
Ge   21.49112000   14.89245000    1.36335000     -0.060927    2.84300900    0.99205700
Ge   19.99544000   15.05378000   13.51845000     -0.468115   -0.20639200   -0.03017600
Ge   19.38960000   19.62880000    5.72777000     -0.264104   -1.00648300    0.21204900
Ge   22.55892000   21.27455000   15.79171000     -0.259186   -0.96736900   -0.28325700
Ge    5.48875000    2.36220000    4.14996000     -0.142844    0.20075800   -0.53652800
Ge    5.30500000    1.52042000   14.28739000      1.544410    1.41990200   -1.35549200
Ge    5.89894000    9.05457000    4.13297000     -0.015688    1.26396200   -0.26179700
Ge    6.67780000    8.13063000   12.32679000     -0.052198    0.93444700    0.53458000
Ge    6.84670000   15.52312000    3.09548000      0.494237   -0.01194100    0.58197600
Ge    3.88924000   13.63008000   13.81223000      0.073962    0.32695000   -0.55782700
Ge    5.41761000    0.42520000    6.43033000      0.139261   -0.45044800   -0.08728200
Ge    7.28331000   19.59646000   12.35349000      0.690341   -0.04008700   -1.36940600
Ge   12.39950000    4.13629000    4.59214000     -0.019022   -1.78564800    0.64451400
Ge    7.78094000    1.39274000   13.04958000     -0.192852    0.92113100    0.35080300
Ge   11.72083000    8.75828000    0.69088000     -0.690253    0.15518800   -0.32294800
Ge   11.69051000    6.15445000   12.99278000     -0.179677    0.61257900   -0.38233400
Ge    9.98661000   13.91733000    1.50129000     -0.681480   -0.59132500    0.45091000
Ge    8.73002000   14.66278000   11.83740000      0.118561   -0.34420000    0.04283600
Ge   11.80435000   20.45094000   18.88567000      0.711372   -0.23029800    0.75550700
Ge   12.01696000   19.95491000   10.62522000      0.921926   -0.05278700    1.26797700
Ge   21.66966000    0.78774000   17.77056000     -0.931905   -0.32154000    1.09012100
Ge   14.42414000    5.45411000   12.01466000     -0.350614   -0.42600200    0.05147000
Ge   17.11021000    8.29108000    1.04765000      0.320657    0.06420000   -0.13972700
Ge   14.83894000    9.40741000   10.15607000     -0.320125    0.32658700    0.10592500
Ge   16.66343000   11.83342000    2.98549000      1.327357   -0.08766700   -0.34751200
Ge   18.04759000   14.90870000    9.00116000      0.122334    0.58843100   -0.07876000
Ge   17.14710000   18.20160000    1.91127000      0.645376   -0.16604300    0.80708800
Ge   16.40846000   20.98910000   11.93649000     -1.082109    0.45072900    0.89393600
Ge    0.17654000    1.92978000    1.42871000      0.449204    1.14497900    1.25961000
Ge    0.01535000    0.27370000   10.92841000      0.216696    0.62509400    0.76825300
Ge   21.92705000    7.46320000    2.58492000     -0.033037   -0.17679300    1.10712700
Ge   22.15624000    9.95849000   12.31843000      0.255763   -1.09654000    0.42549900
Ge    0.01173000   12.85130000    4.19275000     -1.693012   -0.81031500   -1.22027000
Ge    1.19551000   15.82790000   10.32345000     -0.124305    1.49030100   -0.11575100
Ge    0.52275000   20.78625000    4.49737000      1.481796    0.45439000   -0.57190000
Ge   20.90152000   17.62840000   12.02530000      0.012393    0.48022200    0.19329900
Se    1.25708000    1.50265000   18.70005000     -0.130037   -0.69224800   -0.98528700
Se    1.55537000    3.57185000   11.59833000     -0.201612    0.24205100    0.08954800
Se    1.20129000    7.85641000    1.86899000     -0.351126   -0.13055400   -0.71789100
Se    0.57776000    7.89058000   11.25279000     -0.306230    0.96165000   -0.33021500
Se    3.11432000   11.60308000    0.93517000     -0.216994    0.42893900   -0.99343900
Se    1.75066000   13.60184000    9.81229000      0.020044   -1.19678800   -0.16560800
Se    1.85225000   18.35439000    3.77118000      0.660196    0.38408700   -0.23520500
Se    2.09261000   18.68444000    9.52031000     -1.037159   -0.77054100   -0.19128700
Se    7.12453000    1.84178000    2.31694000     -0.424331   -0.28972300    0.14356900
Se    7.71839000    1.16688000   10.65045000     -0.411078   -0.01923600   -0.60099400
Se    7.30975000    5.18556000    1.30843000     -0.004336    0.27324100   -0.43754600
Se    9.51537000    7.26171000   12.26834000      0.448637    0.00886300    0.16574500
Se    8.25222000   11.09304000    0.49471000     -0.372216   -0.58449100    0.91893100
Se    6.30481000   13.65407000   12.44384000     -0.459384   -0.27139500   -0.16198400
Se    5.14793000   19.85136000    0.96770000      0.135877    0.23338400    0.26482800
Se    9.48305000   18.75119000   11.30591000     -0.301621   -0.39027300    0.55144900
Se   14.00524000    2.04933000    0.41758000      0.465762    0.47574800    0.21256500
Se   12.95010000    1.09367000   10.53711000      1.059378   -0.46493200   -0.96037000
Se   10.40031000    7.00569000   18.45390000      0.389207   -0.33493000    1.43525800
Se    9.06600000    9.41857000    8.77015000     -0.203449   -0.78507000   -0.03667900
Se   11.78435000   12.12797000    0.49009000      0.064823    0.28234800    0.67546700
Se   13.08363000   11.78280000   10.69362000      0.757242   -0.09760000   -1.10826600
Se   15.41343000   15.89406000    2.03375000     -0.904586    0.10674700   -0.26159000
Se   12.02247000   17.25068000   10.00078000     -0.523174   -0.22721800   -0.12658400
Se   16.60624000    3.27988000    2.49563000     -0.117247   -0.73557500   -0.72223800
Se   15.97080000    3.52408000   11.34113000     -0.591592   -0.57547200    0.24852100
Se   15.81927000    7.00577000   18.25924000      1.857641   -0.58483100   -0.50699900
Se   20.31732000    5.81341000   12.36834000     -0.248162    1.01371100   -0.37391000
Se   18.55769000   10.09241000    0.00255000     -1.014874   -0.14146500    0.07563500
Se   16.14734000   15.57956000    7.38921000      0.675777   -0.65299000   -0.57057800
Se   20.17962000   16.96512000    0.33633000      0.428995   -1.38380400    0.50029400
Se   18.43180000   20.23199000   11.05866000      1.161072   -0.87439900   -0.12926700
Se    3.71267000    3.83106000    2.85116000      0.290438   -0.21954900    0.37372700
Se    3.60716000    7.07582000   12.34880000      0.512534   -0.68939300    0.03390400
Se    6.15579000    9.86992000    1.61733000      0.409202   -0.14680100    0.59255600
Se    4.97158000   12.46709000   10.74915000      0.205817    0.96923100    0.10192000
Se    4.38350000   15.83969000    4.08273000      1.125989    0.06170300   -0.34415200
Se    3.19554000   15.82808000   12.04746000     -0.669650    0.61785700   -0.03178100
Se    2.78733000    1.04451000    1.92855000     -0.209019   -0.78952600    0.39531800
Se    6.49513000   21.14861000   10.48399000      0.965644   -0.79283300    0.08563900
Se   11.38730000    5.89233000    3.59105000     -0.142411    0.59596300   -0.65592600
Se    6.94218000    3.41130000    9.83435000      0.571350   -0.53481500    0.29575200
Se   10.17067000    9.88627000   17.83612000      0.116840    0.36701300   -0.18587500
Se    7.19309000   10.64508000    9.31099000      0.746211    1.08256800    0.34358700
Se   10.80161000   17.87825000    1.00048000     -0.593937    0.08348200   -0.95797300
Se   11.57899000   14.74213000   11.42823000     -0.494890   -0.09550800   -0.37303100
Se   12.92163000   22.66775000    0.58486000      0.257968   -0.04076500   -0.23806200
Se   10.88744000   22.15452000   11.65441000     -0.090746    0.05935900   -0.16637200
Se   14.46954000    4.50808000    1.39046000     -0.891895   -0.31174500    0.15427100
Se   16.72178000    7.50320000    9.66019000     -0.098341   -0.53269600    0.66243300
Se   14.84100000    9.53011000    1.28934000      0.417480   -0.40001200   -0.18764600
Se   15.30795000   10.27178000   12.60983000      0.537087    0.13078600   -0.15044200
Se   18.52944000   13.95968000    3.06121000      0.091277   -0.05767800    0.04130700
Se   14.48805000   12.61508000    8.81173000      0.412406   -0.59459800    0.82909600
Se   16.93743000   22.64375000    1.87923000      0.452588   -0.11351400   -0.98216600
Se   14.69107000   20.68141000   10.11306000     -0.707089   -0.63543900    0.42784000
Se   20.92729000    0.65549000    1.58749000     -0.919861    1.54194600   -0.00292600
Se   21.79457000    2.84301000   10.58242000      0.055326    0.27519300   -0.94173200
Se   19.90650000    6.68119000    1.20789000     -0.075368    0.13029000   -0.57666900
Se   20.85900000   10.34727000   10.13649000      0.703402   -0.31404300    0.64707800
Se   20.54392000   12.96970000    0.73206000     -0.805297   -1.47973100   -0.98483400
Se   22.52683000   15.86930000   12.23137000      0.394470    0.01131300    0.62309400
Se   22.44647000   22.00096000    2.21653000      0.382256   -0.79337500    0.84777100
Se   20.03816000   20.18780000   15.73951000      0.566296   -0.26029400   -0.47391300
Se    4.07995000    4.96895000    8.48574000     -0.187294    1.41568400   -0.51090300
Se    1.32107000    6.03278000   16.47553000      0.188803   -1.20408300    0.02355300
Se    3.70066000   11.16710000    8.24312000     -1.087285    0.70707400   -0.04893900
Se    3.43155000    9.83851000   18.51542000     -0.281996   -0.39960500   -0.09183500
Se    4.71158000   19.22040000    7.43815000     -0.165905   -0.04210100    0.17285300
Se    0.50152000   17.53064000   16.58562000     -0.508596    0.51675400   -0.02925500
Se    2.53796000   21.87326000   11.78171000      0.400343   -0.14112500   -0.25422600
Se    4.82363000   20.90889000   16.97557000      0.226653    0.29863500    0.33326200
Se    7.01765000    3.77953000    5.65205000     -0.183960   -0.03986800    0.89025200
Se    6.20012000    3.29021000   17.50907000     -0.159312   -0.11912400   -0.70221300
Se    6.51108000   10.69899000    6.29392000      0.149923   -0.28458400   -0.39503200
Se    4.83042000    6.11031000   17.47944000      0.123269    0.73327000    0.10380800
Se    6.90443000   16.32720000    9.90219000     -1.349800    0.55976600   -0.17640900
Se    7.54403000   17.32346000   18.36621000     -0.922438   -0.08139000    0.84997100
Se    8.79152000   18.80194000    7.71967000     -0.431146   -0.31104000   -0.10832600
Se    6.18540000   22.31154000    0.15242000     -0.271085    0.47550200    0.33010200
Se   13.49517000    3.14312000    9.01084000      0.774313   -1.19009200    0.09503300
Se   13.05256000    4.24385000   17.57359000     -0.390419    0.53188800   -0.72197500
Se   12.64239000    8.03712000   10.14377000      0.087829   -0.08468100    0.27626300
Se   13.69579000   11.21836000   15.73541000     -0.426981   -0.21167800   -0.09357700
Se   13.17335000   14.74901000    7.15126000     -0.770737   -0.34749700   -0.05199800
Se   14.09642000   14.36257000   17.80254000      0.205635    0.54129000   -0.17306500
Se   13.49304000   21.40017000    5.55040000     -1.446952   -0.08698400    1.29729900
Se   16.53784000   22.07713000   17.01115000      0.379637   -0.22508900    0.70008000
Se   18.04111000    3.52194000    9.54748000      0.268944    0.19170600   -0.50577400
Se   20.05425000    3.13551000   17.52738000     -0.135163    0.77696000   -0.06659400
Se   19.57277000    9.69054000    8.07926000     -0.029569   -0.95556400   -0.70593600
Se   16.70437000   10.24758000   15.90665000     -0.192625   -0.27893100   -0.11271800
Se   15.49002000   16.08823000   10.59456000     -0.036346    0.55611700    0.52620500
Se   18.06405000   14.71513000   17.21643000     -0.093451    0.51597500   -0.54166500
Se   17.45882000   20.00354000    8.92318000     -0.285348   -0.85421800   -0.17721000
Se   19.67999000   19.81259000    2.39893000     -0.170040   -0.48012900   -0.71984900
Se    4.61829000    0.28743000    8.78219000     -0.002179    0.06841900   -0.20012500
Se    2.29326000    3.74308000   16.57233000      0.062593    1.23093300   -0.34834800
Se    6.73399000    7.09121000   10.15334000      0.435008   -0.75664200   -0.34744800
Se    3.40415000    6.20290000    0.26529000      0.053383    0.18162600   -0.44139200
Se    4.07904000   15.64506000    7.52987000     -0.021751   -0.25478900    0.13270600
Se    5.40267000   13.48307000   18.89537000      0.674188   -0.39303600    0.36273900
Se    3.63622000   20.36960000    9.84382000     -0.616380    0.63786600    0.32612900
Se    0.94311000   16.61877000    0.52083000     -0.614673    0.87821700    0.78738500
Se    9.65357000   22.48860000    7.69955000     -0.147668    0.03595500    0.40494500
Se   10.02004000    3.54278000    0.45627000     -0.294228   -0.11723200    0.70085700
Se   11.35277000    3.94549000    9.29574000     -0.935081    1.16611700    0.06980300
Se    6.26829000    8.41769000   18.27139000      0.641627    0.28728100    0.02856200
Se   10.96209000   13.89741000    8.12489000      0.182856   -0.04634500    0.04836300
Se    8.45691000   13.43108000   17.83292000      0.292394   -0.10673500    0.09811600
Se   11.60533000   20.51181000    8.37708000     -0.137250    0.25000800   -0.62889800
Se   11.46026000   14.95605000   17.21056000      0.214821   -0.00620500   -1.32017900
Se   15.74474000    1.01535000    7.79636000      0.832403   -0.59751000    1.00116600
Se   15.88491000    3.14640000   18.16896000      0.023670   -0.87956600   -0.31746200
Se   15.45068000    5.49202000    8.83412000      0.107255    0.78711200    0.55698800
Se   13.83659000    8.03169000   18.36618000     -1.406849    0.05483100   -1.19473600
Se   16.88472000   11.28924000    9.41966000     -0.803470    1.06507000    0.98448800
Se   16.54054000   13.94387000   19.18500000      0.045044   -0.45792400   -0.11898000
Se   13.71924000   18.44291000    7.23462000      0.648672    0.49549900    0.45870400
Se   16.44699000   19.13223000   19.12401000     -0.497036   -1.09189600   -0.27558500
Se    0.15074000   21.68725000    8.99911000     -0.857471    0.37295200   -1.01497700
Se   22.50336000    0.64016000   15.62339000      0.595548    0.42854500   -1.76255300
Se   20.65604000    5.72293000    8.03942000     -0.107760    0.16875000    0.78033700
Se   21.15366000    7.48899000   18.31576000      0.356342   -0.19471400    0.37787800
Se   22.34677000    9.76761000    6.51647000     -1.562676    0.24836300    0.67465100
Se   20.38126000   11.08191000   17.04768000     -0.010010   -0.57175200    0.05454000
Se   19.45531000   16.96179000    7.86992000      0.670607   -0.70311400    0.05550200
Se   20.05267000   16.19205000   16.26248000     -0.203810    0.05002400    0.18056500
Se    3.38621000    3.05987000   10.10437000     -0.396245   -1.12515200    0.86740700
Se    3.24580000    0.40402000   14.36105000     -1.365642   -0.75608800   -0.00485400
Se    1.11283000    7.93846000    7.45518000      0.559930    0.23879600    0.38971600
Se    1.29347000    9.63361000   17.41760000      0.353447    0.36520500    0.24816000
Se    0.62855000   16.49739000    6.78314000     -0.319060    1.27286700    0.39616900
Se    2.10656000   13.66649000   17.12338000     -0.652862    0.41898400    0.15008000
Se    0.19831000   19.14496000    7.50643000      0.567516   -1.14774500   -0.13936500
Se    2.59940000   20.64816000   16.21844000     -1.562845   -0.36644700    0.54281100
Se    8.14943000    0.10171000    5.94575000     -0.430436    0.32897700   -0.19981700
Se   10.35935000    0.76776000   18.06840000     -0.145110   -0.70074000   -1.06497000
Se    7.70562000    7.14656000    6.02234000     -0.400849    0.87797700    0.11286300
Se    6.51193000    6.89377000   15.01268000     -0.046803   -0.36581700    0.35049400
Se    7.36929000   14.25288000    6.51771000      0.201953    0.29886500   -0.02849600
Se    8.83068000   16.58065000   13.64225000      0.005873   -0.25886300   -0.23950300
Se    6.52298000   18.93459000    4.51600000     -0.213381    0.01478000   -0.68639700
Se    6.89098000   16.14971000   15.27303000      0.750759   -0.68105600   -0.66800700
Se   15.03564000   21.81596000    4.02266000      1.142434    0.68899300   -0.84308500
Se   14.29700000    1.30889000   16.38727000     -0.038296   -0.31303500    0.55583400
Se   13.28351000    7.62522000    5.81807000     -0.012018    0.00482800    1.18606200
Se   11.24243000    6.91630000   15.35583000     -0.597478    0.31080200   -0.34044700
Se   13.35611000   11.80379000    5.64182000     -0.508136   -0.36271600    0.45702400
Se   14.57683000   13.98433000   13.27974000      0.623679    0.81091800    0.93462400
Se   10.46578000   16.94478000    5.68639000     -1.675934   -0.03599000    0.41165700
Se   13.61980000   19.90599000   17.04357000     -0.298608    0.05053500    0.62709300
Se   19.94258000    1.44149000    4.08944000     -0.848378   -0.11131300    1.00730600
Se   18.97553000    0.29439000   17.28275000     -0.033524    0.44681000    0.62927000
Se   17.81724000    3.90681000    5.97312000      0.863404    0.19692300    0.22876000
Se   17.95270000    6.46018000   16.13904000      0.658856    0.13130200    0.20430700
Se   20.26011000   10.32861000    4.91214000      0.069498   -0.28137600   -0.80033600
Se   17.65507000   13.93471000   13.04302000     -0.141995   -0.97458400    0.53402400
Se   17.05915000   18.43637000    6.03417000      0.837026   -0.00691700   -0.51385800
Se   17.49323000   22.83682000   14.37563000     -0.341602   -0.67392600   -0.08092900
Se    4.15855000    7.06320000    7.03347000     -0.067399   -0.16330600    0.15929500
Se    3.45117000    4.68230000   13.32037000     -0.567068    0.64274000   -0.54421400
Se    3.40319000    9.47011000    4.32659000      0.524351    0.03362600    0.07585100
Se    5.37612000   12.20649000   15.19487000      0.010932   -0.30275300    0.77853000
Se    5.11337000   13.13966000    7.38213000      0.576744    0.84585700   -0.83556000
Se    4.19701000   17.76879000   18.36962000     -0.566378    0.17749600   -0.56643400
Se    1.76253000   22.35430000    6.41907000      0.076671   -0.26733600   -0.22876000
Se    5.31403000   22.05830000   13.61405000      0.067486    0.38041600    0.54284000
Se   10.84220000    2.71584000    6.14846000      0.439242    0.18468900   -0.47368200
Se    9.56125000    3.94221000   16.18378000     -0.496597   -0.14037200    0.00916500
Se   10.76035000   10.49305000    6.70871000      0.554563   -0.20420400   -0.64564300
Se   10.49273000   12.53455000   14.77536000     -0.080498   -0.74166600    0.49113400
Se    8.83117000   15.02270000    9.22524000     -0.319759   -0.96053600    0.41238000
Se   11.73191000   18.35527000   16.12148000      0.378961   -0.33605300    1.60231600
Se   10.06513000   20.23917000    4.24443000     -0.393203    0.34531800   -0.66745800
Se    7.75565000   20.36472000   16.97338000      1.533054    0.96886100    1.03741900
Se   14.59023000    3.83960000    5.75520000     -0.503732    0.71287400   -0.25690800
Se   17.76882000    2.80752000   14.95774000     -0.128552    0.20544000    0.07260300
Se   15.97286000    9.21999000    6.69767000      0.058901   -0.51199500   -0.40886800
Se   17.66532000    9.83701000   12.14730000      0.224196    0.43582800    0.45532000
Se   17.41619000   12.88166000    5.22402000      0.034168   -0.32958100    0.68758700
Se   16.51969000   18.22512000   16.14384000      0.068907   -0.19855200   -0.82078700
Se   15.46088000    1.29029000    4.49799000      0.436172   -0.96735200   -0.29681200
Se   18.64625000    3.69835000   12.87684000     -0.830251    0.33412500    0.45597900
Se    0.58932000    3.76645000    7.66519000     -0.880684   -0.11261900   -0.05682300
Se   22.24466000    3.63997000   13.79506000      0.840450   -0.82151400    0.82964100
Se   19.74035000   13.06060000    8.57106000     -0.431659   -0.04392900   -0.88769700
Se   22.10490000   11.71299000   15.62464000      0.761415   -0.05830700    0.03872200
Se   21.79586000   13.52307000    6.96741000     -0.537358   -0.89215000   -0.09065100
Se   21.30622000   18.18691000   14.58149000     -0.510976    0.73054300   -0.42286300
Se   18.69195000   21.23289000    7.39722000      0.647336    1.01961800    0.18315000
Se   22.04748000   21.07621000   18.17059000      0.544460    0.26991400    0.85636900
Se    3.25418000    3.06182000    6.63402000      0.428773   -0.62800300   -0.49834700
Se    6.42753000    1.04261000   16.37249000      0.796579    0.02385400    1.08049900
Se   22.37328000    4.29182000    0.53793000      0.511821   -0.59789600    0.62330600
Se    4.62980000    9.71023000   11.24781000     -0.172309   -0.45544100    0.49032200
Se    2.27279000   11.84850000    3.11974000     -0.472727    0.42085600    0.52575600
Se    4.37266000   15.79607000   15.31891000     -1.249058   -0.82568300    0.75319800
Se    5.11880000   15.86671000    1.57421000     -1.083699    0.38725400   -0.26210600
Se    5.69377000   17.77176000   12.90203000      1.008478   -0.66997400   -1.37418000
Se   10.57111000    1.05702000    3.00856000     -0.580396   -0.24845500   -1.19715200
Se   11.83888000    1.47529000   13.93366000      0.019887    0.41445100    0.24963500
Se   10.32514000    8.96886000    2.71422000     -0.047520   -0.36096100   -0.07344400
Se    8.00980000    8.64526000   16.46882000     -0.505207   -0.07058100    0.07315800
Se    9.30136000   12.39768000    3.48152000     -0.393820    0.71837800    0.41372600
Se   10.05810000   12.40619000   11.58071000     -0.676980   -0.15972300    0.18824700
Se    8.83013000   21.35757000    2.42603000      0.395345   -0.54507900   -0.05638600
Se   11.19956000   18.78738000   13.96708000     -0.232467    1.12499400   -1.35602400
Se   17.92069000    0.55782000    5.71116000      0.439388    0.89047700   -0.49303700
Se   14.23414000    2.54588000   12.82855000      0.232874    0.13795300    0.20565600
Se   15.93904000    6.49366000    3.64243000      0.570494    0.12981700    0.10150000
Se   15.46069000    5.50131000   14.90402000     -1.132271    0.52382600   -0.68209200
Se   14.51333000   13.06766000    2.75905000      0.001526    1.37264600   -1.05358400
Se   17.02173000   16.30327000   14.71202000     -0.076802    0.16663500    0.22774700
Se   15.48784000   16.16175000    4.35956000      0.163872    0.50792300    0.35695700
Se   17.08707000   20.15035000   14.43336000     -0.272709    0.20202800   -0.51642000
Se   22.94569000    0.45918000    5.33411000     -0.649000    0.33563900    0.45127000
Se   20.84105000   22.97270000   12.52393000     -0.183876   -0.42575200   -0.14887400
Se   21.35563000    5.40971000    4.79610000      0.179111   -0.31458100    0.00175800
Se   21.58336000    8.72800000   14.53132000     -0.280163    0.35449300   -0.45860800
Se    1.35358000   13.95449000    5.73690000      1.382435    0.03739800    1.47198400
Se   21.91243000   14.38570000   16.46637000     -0.033663    0.29514800   -0.59565400
Se   21.90797000   19.26513000    5.13734000     -0.979122   -1.29243800    0.89709900
Se   21.17628000   19.37901000   10.43271000      0.569174    0.22499200   -0.45970800
Se    0.57769000    4.70161000    5.41254000      0.095671   -0.06616500    0.09833700
Se   21.78246000    6.03448000   14.33036000      0.135289    0.03156100    0.52892000
Se   21.13206000    9.81004000    2.66554000     -0.111873    0.61900700    0.42574100
Se    1.03413000   11.55390000   12.45418000      0.206416    0.06912100   -0.18590100
Se    0.93012000   14.34685000    1.36236000      0.645292   -1.13704000   -0.69377900
Se    0.40238000   21.06533000   12.10505000      0.330502   -0.97364900    0.39868700
Se    3.51752000    0.48228000    4.24987000      0.461515    0.23212100    0.02729600
Se    3.98383000   18.64889000   14.08052000     -1.497113    1.16392000    0.33462800
Se    9.60545000    6.24441000    6.78503000      0.958661   -0.97774500    0.54280300
Se    7.38131000    4.07579000   12.89689000     -0.457529   -0.41545600    0.53886400
Se    5.68534000    6.59899000    4.01544000     -0.261443    0.06989300    0.56834600
Se    8.28760000   10.47215000   12.55216000      0.234148   -0.18515300    0.38631800
Se    8.29965000   17.43637000    3.32635000     -0.098577   -0.22071600   -0.38766500
Se   12.18157000   15.02924000   13.64679000     -0.020469    0.26067700    0.06874600
Se    6.06867000   20.71899000    6.07393000     -0.177399    0.49072800    1.08710500
Se    8.04627000   21.03260000   13.93685000     -0.327871    0.74286400    0.47795700
Se   12.75927000    1.85738000    3.18300000      0.427824    0.94117400    0.14019700
Se   11.27276000    3.48638000   12.00993000     -0.666553   -0.26322700    0.29615800
Se   14.28402000   10.87072000    3.42773000     -1.188919   -1.46681600    1.50770700
Se   11.80257000    9.51999000   12.93451000      0.565959    0.18130100    0.43448500
Se   11.75489000   15.01840000    2.96699000      0.409135    0.48083100    0.45828800
Se   14.63682000   17.64629000   12.25781000      0.067665   -0.37269000   -0.15483800
Se   13.53618000   19.46052000    1.58577000      0.025865   -0.24530600   -0.23015600
Se   13.29114000   22.06050000   14.87131000     -0.109948    0.40440400   -0.03657100
Se   17.06691000    5.53824000    1.04511000     -0.116481   -0.27930800   -0.89538300
Se   16.24902000    6.92465000   12.30220000      0.841041    0.35849500   -0.01668500
Se   17.65637000    8.14657000    3.56447000      0.045517    0.55132600    0.54759000
Se   20.98126000   12.73033000   12.92338000     -0.336060   -0.10498900   -0.07066000
Se   22.06056000   15.50958000    3.88441000     -1.087553   -0.30797800   -0.65465000
Se   19.12922000   16.20435000   11.12967000      0.073635   -0.56882600    0.43341300
Se   18.77955000   21.19836000    4.09789000     -0.499863    0.86811000   -0.29593700
Se   17.16960000    0.34991000   11.81783000     -0.233661    0.45626100   -0.15577900
