384
23.00800000 23.00800000 19.32000000
Ge    4.81003000    5.48160000   10.65390000      1.463402   -0.44570800    0.11117500
Ge    3.80780000    8.30298000    2.33752000      0.843137    0.44180800   -0.12776200
Ge    2.14001000    9.69113000    8.39184000     -0.054977   -0.02121200   -0.31744800
Ge    5.79565000   11.60525000   18.27693000      0.559948    0.13513200   -0.61319400
Ge    4.62251000   15.20493000    9.51975000     -0.603263    0.78125100    0.29502500
Ge    7.58332000   18.70717000    2.10364000     -0.482666    0.11519800   -0.59563500
Ge    6.82835000   20.30004000    8.28084000     -0.763957   -0.61219600    0.37646100
Ge    5.51713000    3.27085000    0.11521000     -0.114667    0.65152200   -0.16689900
Ge    8.77799000    5.93021000   11.04119000     -0.719413   -0.38728400    0.42877000
Ge   10.01783000    7.52376000    2.40020000      1.085110   -0.04646700   -0.17906300
Ge   12.72450000   13.79215000   10.03182000     -0.859014   -0.60661600    0.87139000
Ge   11.72289000   11.55555000   17.66712000      0.307899    0.87021800   -0.39567900
Ge    9.91578000   17.31469000    7.31979000      0.365004    1.60021700    0.91334500
Ge   14.46345000   17.73332000   18.87709000     -0.208403    0.63129700    1.36062200
Ge   11.04171000    3.40586000    9.77569000     -0.062033   -0.89194100    0.31923800
Ge   15.79020000   22.44443000    0.04534000     -0.038262   -0.19756200    0.34190200
Ge   18.60064000    5.21693000   10.57944000      2.001899   -0.41631700    0.42745600
Ge   18.06889000    8.14349000   18.05827000     -0.581186    0.47760600    0.29911800
Ge   21.01347000   14.49186000    9.75972000     -0.741311   -0.13945400    0.60028600
Ge   16.07625000   10.77196000   19.03952000     -0.495069    0.02257800    0.69239100
Ge   13.88561000   16.69651000    7.43866000     -1.917774    1.19330500   -3.35360100
Ge   19.75329000   14.37910000    0.07054000     -0.378646    0.41708300    0.46762300
Ge   19.69867000    0.63514000    9.97975000     -0.110689   -0.39934300   -0.02852900
Ge   17.60228000    2.22957000   17.62343000      1.389220    0.18104600    0.59364700
Ge    0.16359000    8.51084000    9.97470000      0.037949   -0.07356500   -0.09902200
Ge   21.90423000    1.88193000    2.22005000      0.699090   -0.69727400    0.60535900
Ge    0.21830000   12.38625000   11.56244000     -0.897630   -2.14516000    0.02871300
Ge   22.40812000   11.30802000    1.05000000      0.620162   -0.24667000    0.00328800
Ge   22.48952000   16.15120000    8.02246000      1.215571   -0.29383800    1.00334200
Ge    0.55230000   14.68784000   16.63304000      0.388608    0.21928500    0.11555700
Ge   21.51521000   21.66911000    8.83932000     -0.134020   -0.17684400   -0.80482500
Ge    3.58508000   20.93552000    0.79111000      0.252616    0.08819300   -0.45695600
Ge    6.13793000    8.22786000    8.13958000      0.235998    0.51411900    0.68603200
Ge    1.81585000    7.01687000   17.55310000      0.243379   -1.95013500    0.36769800
Ge   22.54649000    7.67749000    4.95330000     -0.153871   -0.06557900    0.90541400
Ge    3.13678000   12.06017000   15.73455000     -0.152885    0.18236500    0.01964900
Ge    6.87125000   15.23916000    4.91275000     -0.198205   -0.04661900    0.79664400
Ge    2.23949000   19.29650000   17.82830000      0.723772    1.10846200    0.13313200
Ge    4.11636000   18.83981000    9.56840000     -0.154481    0.10798200    0.89237100
Ge    2.14639000   22.52973000   15.27682000      0.702883    1.89925100    0.64982700
Ge    8.75404000    2.29325000    7.48874000     -0.813328   -0.30284500    0.83669600
Ge    8.65437000    3.57965000   17.71010000     -1.540734   -0.66827400    0.40179400
Ge    7.32820000   13.19240000    2.71977000     -0.123542   -0.56602500    0.27750500
Ge    7.02144000    9.22178000    1.63458000     -0.325304   -0.19055900    0.81871600
Ge    5.55010000   17.10177000    7.06063000      0.010359   -0.40515100   -1.05521300
Ge   10.41229000   14.35960000   18.63002000     -1.356663    0.73048700    2.49552800
Ge   11.02348000   22.70393000    6.09387000     -0.022709   -0.52263300    0.29205200
Ge   10.23835000   22.87182000   14.25601000      0.449757   -0.80675200    0.86484900
Ge   13.36542000    5.67889000   10.34340000      0.440044    0.35585700    0.39350300
Ge   13.64776000    6.97088000   18.57200000     -1.316763    0.30173500   -0.76361600
Ge   13.43298000    8.22080000    8.16364000     -0.297109    0.46687300   -0.70944000
Ge   15.04400000   13.36055000   15.41163000     -1.210870   -0.09971300   -0.75092300
Ge   13.98940000   17.35277000    3.79371000      0.018405   -0.09454300   -0.77056300
Ge   14.27502000   19.71057000    2.67476000     -0.620287    0.68162100   -0.43419100
Ge   15.46156000   21.58648000   10.00515000     -0.221302   -0.22874900   -1.03904600
Ge   16.14319000    1.11476000   14.59991000      0.112423    1.52754800   -1.13883000
Ge   20.71561000    3.59440000    8.21494000     -0.160338   -0.59607400   -0.77176000
Ge   21.50275000    4.93907000   17.67060000     -0.080830    0.81086900   -0.36738600
Ge   16.42137000   10.20514000    8.72941000     -0.886753    0.47224100    1.46996000
Ge   18.15575000   14.56133000   17.07092000      0.545699    0.26893400    0.08868300
Ge   18.48696000   16.64702000    4.00444000      0.426320   -0.41137600   -0.31996500
Ge   20.75308000   17.99145000   17.30859000      0.368357    0.00989100   -1.12078500
Ge   22.20700000    2.66330000    4.90681000     -0.808372   -0.47393000   -0.18492800
Ge   19.82827000    0.54185000    0.11339000     -1.630928    2.09645000   -2.78312500
Ge    5.57129000    3.40202000    7.79850000     -0.229771   -0.06190200   -0.33764600
Ge    1.65652000    5.00905000   14.39456000      0.021834    0.68113900    0.46038300
Ge    2.15237000    6.24717000    3.00340000      0.113637   -0.33011600    0.17865000
Ge    1.29799000    9.44042000   13.71261000     -0.143265    0.33664300   -0.01863800
Ge    2.15664000   14.03326000    2.98749000     -0.409488    0.44130000    0.31989200
Ge    0.66944000   17.69943000   12.48828000      0.429037    0.08262900   -0.26995700
Ge    1.11940000    2.17632000    6.60428000      0.285127    0.61723200    0.48810600
Ge    5.01236000   15.57252000   15.32092000     -0.216292    0.03658000   -0.02253600
Ge    9.27419000    3.18054000    2.54799000     -0.381997    0.11418900    0.80925100
Ge   10.77312000    2.26902000   17.29162000      0.262547   -0.69792300   -0.40785900
Ge    9.35301000    9.01652000    5.51133000     -0.206139   -0.42824100   -0.08665800
Ge    9.66911000    8.95759000   14.03271000     -0.683433   -1.14640400    0.51728600
Ge   11.51202000   13.96591000    5.47713000     -0.428677   -0.13701500   -0.69087000
Ge   10.07632000   13.79231000   13.99034000     -0.466409   -0.57341000    0.80442300
Ge    6.80687000   22.35602000    1.69788000     -0.079919   -0.34156100    0.18608200
Ge    8.35917000   18.05145000   17.70327000      1.065101    0.05194600    0.01908800
Ge   14.18808000    2.49161000    6.82786000     -0.243936   -0.12023800   -0.34961600
Ge    9.82574000    5.43848000   16.39810000      0.400155    1.51924900   -1.41464100
Ge   14.42322000    6.22075000    5.63865000     -0.000281   -1.08797100    0.08384200
Ge   13.42063000    9.80926000   14.09501000      0.313809   -0.29415200   -0.01734900
Ge   15.73905000   13.18452000    5.37205000      0.321714    0.41463600   -0.03249400
Ge   16.34925000   15.56500000   14.95834000      0.597621    1.23394900   -0.49520000
Ge   10.10887000   17.98737000    3.02906000     -0.111645   -0.32942600    0.55206300
Ge   12.82785000   21.18420000   16.52978000     -1.158251   -0.42706800    0.40288900
Ge   17.56391000    5.00410000    3.59617000     -0.369376   -0.36590200    0.83431500
Ge   20.82298000    1.90248000   12.24781000      0.071910   -0.77579800   -0.15937900
Ge   18.33356000    8.68089000    6.55410000      0.485930   -0.42194900    0.70906000
Ge   18.27954000   11.24749000   15.57558000     -0.222856   -0.83387400    0.08176600
Ge    1.25573000   16.22000000    0.47027000      0.298618    0.36461300    0.74869900
Ge   18.16346000   14.73956000   12.62517000     -0.705825   -0.37536100   -0.47201800
Ge   22.73370000   20.46919000    4.42771000     -0.293689   -0.22206400    0.02005400
Ge   22.29963000   19.96323000   15.26521000      1.891783   -0.93423800    1.49678500
Ge    6.47715000    2.21677000    3.79548000     -0.562920    0.37895200    0.39028600
Ge    4.51650000    4.44823000   15.90215000      1.574237   -0.55545800   -0.18773900
Ge    3.80740000    8.94422000    5.05976000      0.474729    0.99928500   -1.43576200
Ge    4.16495000    8.27182000   13.32335000      1.001915    0.83136800    0.86891600
Ge    4.52491000   14.07858000    0.67059000      0.535640   -0.17205300    0.03389500
Ge    2.60210000   12.96297000   13.23437000      1.571338    0.07373000    0.44749400
Ge    4.23206000   22.86197000    6.20485000      1.111548    0.89808200   -0.86809600
Ge    7.60448000   20.20468000   12.07116000     -0.512340    0.10380900   -0.69195200
Ge   10.99529000    4.50142000    6.19461000      0.503990    0.19229900   -0.67236800
Ge    7.50102000    1.13437000   12.83900000      0.329754   -0.14353500    0.51280500
Ge   12.52943000   10.32371000    4.30393000     -0.970785   -0.00853900    0.38948300
Ge   14.04369000    7.13260000   13.73581000      0.048664    0.32855300    0.55060200
Ge   12.48421000   14.41728000    1.21272000     -0.249458    0.24582200   -1.14355200
Ge    9.29705000   16.14913000   10.85379000      0.199329    0.18192600    0.50333900
Ge   11.54309000   22.10349000    0.96748000     -0.331271   -0.66364500   -0.73953000
Ge   11.32696000   19.28867000   11.95864000      0.960881   -1.21887700    0.35689400
Ge   22.53966000   22.88254000   18.20226000      0.448034    1.10263800   -0.12509600
Ge   15.69511000    4.33749000   13.58593000     -0.911950    0.11383500   -0.82923900
Ge   17.12759000    8.47457000    2.46968000      1.449643   -0.27796000   -1.27645700
Ge   16.73352000    6.81608000   10.00105000     -0.917972    0.85201400   -0.32482600
Ge   18.05086000   12.04397000    3.73986000     -0.294656   -0.01361400   -0.87829000
Ge   19.40083000   15.04428000    7.08349000     -1.384545   -0.95263500   -0.37640100
Ge   17.24166000   19.25953000    2.91147000     -0.792535    0.22490000   -0.32001600
Ge   16.27333000   19.20255000   12.40425000     -1.514168    0.63737100    0.62554700
Ge    1.30880000    0.12001000    1.71149000      0.219459   -0.26418100    0.39197300
Ge   22.83199000   22.34989000   11.06338000     -0.506629    0.40054200    0.62327100
Ge   20.08831000    5.14944000    4.40072000     -0.160066    0.03908100    0.13138000
Ge   20.32527000   10.83686000   11.64442000     -0.063649    0.19373500    0.67493500
Ge   21.79014000   13.52233000    4.11435000     -0.486423   -0.00409300   -0.04193100
Ge    0.79508000   18.45784000    8.48607000      0.539701   -0.34136500    0.51939000
Ge    2.72543000   19.99932000    4.14140000      0.257645    0.53322400   -0.34216500
Ge   20.36080000   18.50404000   12.27079000     -0.797156   -0.59411900    0.50963900
Se    2.04646000   22.77319000   18.40370000     -0.296323    0.06283300   -0.14347200
Se    0.97752000    2.46396000   11.80398000      0.629523   -0.43738100   -0.18655500
Se    0.00399000    4.92666000    2.17282000      1.828039   -0.69849200   -0.47592500
Se   22.60796000    8.21829000   12.35724000     -0.280745   -0.02596200   -0.76714400
Se    3.98357000   10.63002000    0.22272000     -0.157074   -0.04905600    0.94704300
Se    1.49838000   14.22768000   11.50590000      0.544204    1.73521200   -0.30747000
Se    3.14745000   17.96659000    1.14907000     -0.450124   -0.85417500    0.12976000
Se    1.21330000   21.06996000    9.67260000      1.609931   -0.08388000   -0.47669800
Se    7.58564000    2.25258000    0.93972000      0.833820   -0.92558800   -0.22318100
Se    5.40024000    2.02440000   11.79129000      0.055181    0.47263100   -0.28164600
Se    7.63865000    7.51278000    3.54092000     -0.916613   -0.06721200    0.09504900
Se   10.12866000    8.00841000   11.50902000      0.097721   -0.29127200    0.85100900
Se    8.36495000   12.31505000    0.50583000     -0.422956    0.17550200    0.43856500
Se    5.08777000   13.78593000   12.65815000     -0.309626   -0.13888000    0.58538500
Se    5.39765000   20.01514000    2.56123000      0.566857    0.21958500   -0.33772400
Se    9.56768000   18.62317000   10.41806000     -0.623807   -0.29412300   -0.55700200
Se   13.98631000    3.78723000    2.05942000     -0.958027    1.24650500   -0.83215800
Se   12.15604000   22.88308000   11.31893000     -1.017255   -0.13436800    0.02891500
Se    8.44268000    8.62048000   19.02847000      0.499739   -0.40903200   -1.31638200
Se   10.24114000    9.29202000    9.62582000     -0.590505    0.80571800   -1.10375100
Se   13.58763000   12.44373000   19.18512000      0.032909   -0.15323800    0.19494700
Se   13.38939000   11.20002000    8.39344000      0.656587   -0.17383300   -0.28917400
Se   16.07295000   14.58127000    0.92778000     -0.209600    0.06323600    0.61399100
Se   12.13422000   18.14647000    8.14064000     -0.553613   -0.42056900    0.08021000
Se   16.02825000    3.07275000    2.84464000      1.191118   -0.17704800    0.35039100
Se   13.94319000    0.68454000   10.29256000      1.275358    0.58922000   -0.77423400
Se   18.59319000    4.65273000   17.83583000      0.553677    0.24353400    1.04368200
Se   20.93823000    8.41334000    8.77590000      0.160634   -0.06655600    0.34795300
Se   18.14780000   10.60354000    1.37423000      0.326220    0.08759500    0.03776800
Se   17.23884000   15.69336000    5.85668000      0.223352   -0.27705100    0.65996100
Se   20.36128000   17.28650000    0.22387000     -0.136424   -0.93393100    1.60156600
Se   17.96913000   18.32016000   11.03827000      1.836571   -0.79806700   -0.73693000
Se    5.22771000    4.27615000    2.38320000      0.137909   -0.24491200    0.78448800
Se    2.65059000    6.69268000   12.64394000     -1.120255   -0.85517000   -1.81868800
Se    5.00832000   10.59104000    2.86099000     -0.642532   -0.47790200   -0.94955600
Se    5.95027000   13.50817000   10.45578000     -0.379465   -0.68854300    0.63033700
Se    4.71068000   13.84013000    3.42156000      0.451357    0.16739500   -0.22566000
Se    3.13203000   16.74438000   11.08207000      0.336137   -0.09077100   -0.88757500
Se    4.88659000    1.53252000   17.81817000     -0.137751   -0.19068800    0.09616200
Se    5.93000000   21.47372000   10.39369000      0.794635   -0.82223200    0.02838400
Se   11.41725000    7.65499000    4.60742000     -0.038037   -0.01714900   -0.00649500
Se    6.87234000    3.44037000   10.36089000     -0.738929    0.38097000    0.40588800
Se    9.79214000   11.57171000   15.61045000     -0.084305   -0.41411700    0.73380700
Se    8.05135000   10.14743000    8.89502000      0.219429   -0.62524500    0.15986000
Se    9.55732000   16.50582000    0.17950000     -0.331717    0.25602700   -0.99573500
Se   11.88893000   16.12008000   11.07165000      0.104962    0.20042200   -1.45514200
Se   14.38862000    0.93395000    1.92712000      0.704582   -0.55133200   -0.71043000
Se   12.74888000   21.67198000   13.78565000      0.279961    0.25341700    0.37854700
Se   12.09027000    8.78402000    0.99252000     -0.207389    0.20003500    0.09982900
Se   19.72773000    6.73175000   12.65009000     -0.106577    0.30149800   -0.42894500
Se   15.74210000    7.95695000    0.11179000      0.699071    0.80232600   -0.16979100
Se   13.93594000   10.98158000   11.94891000      0.078597    0.50545500    0.01179200
Se   19.23185000   14.17219000    3.12811000      0.555027   -0.07821900   -0.55709300
Se   14.82981000   13.91047000    8.86435000      0.424902   -0.96774600   -0.64716600
Se   17.58060000    1.25992000    0.74690000     -0.258938   -0.00858800   -0.04389200
Se   14.39384000   19.44522000   10.62080000      0.295966    0.44211800    0.49052400
Se   20.91381000   22.55276000    1.72035000      1.626436   -1.46658800    2.39801100
Se   21.46683000    4.86717000   10.18732000     -0.189827    0.59237800    0.73381600
Se   20.88780000    5.67301000    2.09542000     -1.356389    0.84045900    0.46105900
Se   22.01760000   12.35559000    9.41676000      0.326592   -1.17337900    0.17892600
Se   22.02947000   13.84810000    0.01285000     -0.068380   -0.24513400    0.23243000
Se   21.93865000   16.48899000   10.65219000      0.229098    0.59682500    0.73598900
Se    0.90609000   20.50279000    1.61566000      0.280541    0.34452000    0.47910300
Se   20.79010000   21.25876000   14.16365000     -1.701135    0.99592400   -0.62283000
Se    3.77059000    5.10570000    8.59192000      0.039883   -0.18147400   -0.18393400
Se   22.87298000    6.74506000   15.15722000     -0.231678   -0.98753200    0.35605000
Se    4.22076000    9.38973000    9.63058000      0.437993   -0.43517500   -0.40546500
Se    1.04815000    9.15251000   17.54254000     -0.488516    1.11836600    0.83310600
Se    2.80665000   17.65076000    6.74927000     -0.140719    0.06347600    0.61456500
Se   22.29146000   17.48510000   14.65501000      0.029723    0.68093300   -0.20887500
Se    4.53628000   22.48524000   13.62945000      0.161327   -0.07270200   -0.20967900
Se    8.23560000    0.83954000   16.72668000      0.136416    0.11636700   -0.13628700
Se    8.23456000    3.76020000    5.31770000     -0.355513    0.39255200   -1.52860900
Se    6.02843000    5.17054000   17.94981000      0.268016   -0.55047300    0.20204000
Se    6.47553000    9.91104000    5.70420000      0.128108   -1.52004700   -0.54254100
Se    3.61170000    6.64055000   15.74879000     -0.576555    1.18672500   -0.35461100
Se    6.25654000   17.08578000    9.44418000      0.111912    0.43107600    0.29670400
Se    6.91999000   16.09613000   17.14732000     -0.436889   -0.32131500   -0.05691900
Se    9.10926000   19.73756000    7.37684000      0.237459   -0.36762200   -0.13863800
Se    5.42384000   22.38793000   18.60833000      0.785767   -0.69787000    0.38147500
Se   16.60526000    2.04391000    6.31357000      0.126159    0.23400800    0.19948800
Se   13.50095000    4.65237000   14.90990000     -0.324154   -1.15450700   -0.23848100
Se   13.98084000    8.08554000   10.54683000      0.258506   -0.57832900    0.70449300
Se   13.68243000   11.17848000   16.12061000      0.499386   -0.31835700    0.08233600
Se   13.79209000   14.96114000    5.28187000      0.194864    0.71575700    0.54807300
Se   13.75073000   16.17090000   17.36797000     -0.491630   -0.89057700   -1.14050900
Se   13.58155000   22.30647000    7.71779000     -0.618885   -0.41360500   -0.02755700
Se   17.77189000   20.10340000   18.99938000     -0.534789    0.00859300   -1.11871100
Se   18.51955000    2.72540000    9.55894000     -0.295380   -0.28980000   -0.24178700
Se   21.30521000    2.58186000   17.38645000      0.443116   -1.10467100    0.26633600
Se   17.31667000   10.08761000   11.25369000      0.587381    0.57390100   -0.48573700
Se   16.47203000    9.77856000   16.79300000      1.146559   -0.26233800   -0.27443800
Se   15.30065000   16.19157000    8.98517000      2.609137    0.32095000    2.70289800
Se   19.00160000   16.02221000   14.47716000     -0.775747    0.19675100    0.23975400
Se   18.81871000   17.49815000    8.88650000      0.013652    0.24084600    0.27682200
Se   19.03505000   20.08322000    1.53241000      1.044054    0.12725500    0.71499800
Se    4.53110000    0.98308000    8.42804000      0.004947   -0.05223600    0.84107700
Se    1.66561000    3.10502000   18.71250000     -0.758542    0.04309300    0.26469700
Se    6.49518000    7.37079000   10.84409000     -0.237130   -0.47287900   -0.11734400
Se   22.86971000    8.07774000    0.48123000      0.472144    0.54461300   -0.92980500
Se    4.58233000   14.63491000    7.18052000      0.039488    0.45230000    0.01827500
Se    4.52696000   13.71036000   17.01942000     -0.249603   -0.16901300   -0.21362400
Se    2.75193000   20.29942000   12.20999000      0.601487   -1.38181500   -0.65744700
Se    0.85534000   17.34541000   17.63530000     -1.052499   -0.83613300   -0.64021200
Se    9.34903000    1.48901000    9.96404000      0.240297    0.01767100    0.65425500
Se   10.65259000    4.65977000    1.46952000      0.134154    0.35420500   -0.23770700
Se   11.72632000    4.94017000   11.89198000     -0.107201   -0.45479000   -0.11346400
Se    4.85748000    7.57312000   19.19197000      0.028570   -0.20076000    0.12416000
Se   11.03280000   14.30432000    7.99924000      0.490525   -0.96356200    0.56251500
Se    8.46633000   13.17125000   17.52098000      0.104669   -0.17254300   -0.16674000
Se   11.38613000   21.09353000    8.40058000      0.195538    1.03946000   -0.66007300
Se   11.73463000   14.32683000   16.85238000      1.676546    0.21613700   -2.10818100
Se   18.62158000   20.39472000    8.53909000     -0.590237   -0.36946700    0.78777000
Se   14.91094000    5.11673000    0.08159000      0.541433   -1.40955400    0.55129600
Se   15.56300000    4.61329000   10.11521000     -0.208207   -0.03125600    0.18079800
Se   10.62179000   10.59869000    0.40414000      0.135883   -0.74378000    0.48930400
Se   16.46248000   12.38460000   10.47753000      0.417620   -1.13515400   -0.31713500
Se   16.07633000   13.35050000   17.56875000      0.663200   -0.30486900    1.23785200
Se   15.22947000   18.89828000    6.72300000      0.044243   -0.30327500   -0.55898000
Se   16.03257000   21.55277000    2.55459000     -0.434061   -0.05878200    0.22925200
Se   22.41684000    1.44490000    8.46186000     -0.740137   -0.49076200    0.34669600
Se   22.87478000    1.56959000   15.78782000      0.513051    0.33273200    1.14458800
Se   19.33959000    6.25988000    7.93725000      0.012025    0.09726700    0.01395700
Se   20.66346000    7.62563000   19.04578000      0.168706    1.17301100   -0.33152800
Se   21.38034000    9.64061000    6.69765000     -0.488766   -0.40472300    0.12570800
Se   20.47080000   10.11865000   18.07811000     -0.426823   -0.59287600   -0.19114200
Se   20.75792000   16.96996000    6.60445000     -0.795747    0.73880100   -0.99853800
Se   18.33305000   17.58953000   18.31587000      0.112219   -0.12843300   -0.21275300
Se    2.34214000    1.84894000    8.73006000     -0.150993   -0.36720300    0.76291100
Se    2.63597000    3.04666000   16.55771000     -0.462306   -0.00351900   -0.23946400
Se    1.46440000    7.60070000    7.10809000     -0.109295   -0.45929200    0.09516500
Se   21.33650000   10.15715000   15.72104000     -0.064760   -1.26038800    0.31010000
Se    1.49233000   14.71152000    7.96833000     -0.144953    0.25586600   -0.50966200
Se    0.77428000   12.34458000   16.51371000      0.305044   -0.92094900    0.46485600
Se    1.37553000   17.82397000    4.61677000     -0.029386    0.18942700   -0.09475800
Se    2.14056000   20.24014000   15.13034000     -1.116098   -1.98639800    0.29386700
Se    8.41740000   22.76988000    4.79836000     -0.188446    0.10603300    0.60141900
Se   12.29997000    1.04970000   18.72741000     -0.027648   -0.04437900   -0.11648700
Se    7.63749000    5.70422000    7.00886000     -1.004488    0.33081800   -0.62615000
Se    7.54410000    7.14498000   14.51749000      0.248188    0.12063700   -0.24061700
Se    8.15886000   12.94352000    5.68205000      0.783832    1.10927700   -1.12074200
Se    7.56993000   16.59713000   13.22892000     -0.611841   -0.40206100    0.05118800
Se    3.73963000   19.98147000    6.82686000      0.376712    0.10681800   -0.16919500
Se    7.87207000   14.98856000   15.06032000      0.202588    0.11251200   -0.04512900
Se   13.89248000   20.43717000    5.50116000     -0.180857   -0.24807500    0.57727100
Se   15.51212000    1.53460000   17.12615000     -1.917420    0.13300100    0.25573100
Se   12.82133000    5.37951000    8.06140000     -0.078839    0.04775500   -0.80310100
Se   11.21704000    7.41733000   15.58534000     -0.353448    0.31189400   -0.27048200
Se   14.54912000   10.92818000    5.88556000     -1.084434   -0.36097400    0.78880500
Se   13.32745000   13.27946000   12.52924000      0.232602   -0.67153400   -0.01197200
Se   10.38159000   16.37734000    5.27067000      0.063324   -0.75735800   -1.67817000
Se   13.27865000   20.18067000    0.19589000      0.155786    0.49547500    0.09962400
Se   20.02287000    1.56730000    5.76328000     -0.233761    0.91775200   -0.57909400
Se   19.00488000    0.48604000   16.78049000      0.309416   -0.58764000    0.28090400
Se   16.79195000    4.88321000    6.13082000     -0.032337   -0.20355500   -0.58207800
Se   18.27628000    6.41115000   16.33461000     -0.221988    0.11965900   -0.44951600
Se   20.35720000   11.20709000    4.73594000      1.348106   -0.14959000   -1.23041600
Se   16.76498000   12.25872000   14.04694000      0.129221    0.39950900   -0.84699300
Se   18.20373000   19.30465000    5.10671000     -0.044355   -0.18796900    1.04997700
Se   17.42135000   22.38015000   13.76764000      1.099215   -1.08174300   -0.41867400
Se    3.89505000    6.82683000    5.81181000     -0.713973   -1.59255100    1.75456300
Se    3.97299000    4.28655000   12.59217000      0.373957    0.04486400   -0.11355200
Se    1.33366000    8.59654000    3.47951000      0.153941    0.44022700   -0.37516300
Se    4.36468000   10.12136000   16.64046000     -0.453993    0.27293100   -0.30239700
Se    6.20288000   12.09201000    6.40709000     -1.560112    0.03818100    1.09279400
Se    4.77471000   18.33341000   17.15736000     -1.104875   -0.51228400    0.88650300
Se    1.94651000   21.79015000    6.03249000     -0.846114    0.14225600   -0.00959200
Se    6.89508000   21.63102000   14.04377000     -0.303144    1.17122600    0.53487700
Se   11.17062000    2.10814000    7.17674000      0.463798   -0.33081100   -0.04618000
Se   11.95862000    4.44671000   17.11844000      0.254234    0.43200300    0.73381000
Se   10.72288000   10.83716000    6.23183000      0.901630    0.64036900   -0.14362400
Se    7.23608000   10.74125000   14.17793000      0.204964   -0.05588300    0.09949000
Se    8.98614000   15.32503000    8.47528000     -0.596352    0.02879100   -0.21312600
Se   10.17206000   17.55915000   15.79287000     -0.508926    0.15636500    0.15581300
Se    8.01376000   18.85735000    4.45051000      0.041165   -0.15975700    0.18003300
Se   10.17030000   21.28046000   16.68628000      0.841237    0.47106100   -0.38225800
Se   13.22659000    3.69792000    4.66388000     -0.193971    0.58017600    1.05064100
Se   17.62402000    3.72481000   14.84943000      0.969994   -0.86393500    0.16618900
Se   15.85256000    7.53030000    7.48827000      0.381375    0.60435000   -0.02317000
Se   16.42499000    8.40960000   14.05469000     -0.489944    1.34045500    0.40671900
Se   17.42109000   11.24127000    6.69995000      0.658911    0.48468400   -0.31292900
Se   16.33158000   17.77570000   16.43023000     -0.614934   -0.11198700   -0.29549100
Se   15.09673000    0.46269000    5.39982000      0.173055    0.19020500    0.33828600
Se   18.67312000    3.13718000   12.55351000     -1.150073   -0.20397100    0.20347200
Se   23.00411000    4.59338000    7.36321000      0.612384   -0.13817000   -0.58887600
Se   21.98018000    3.98032000   12.55767000      0.825864    0.70480100   -0.24493300
Se   19.75764000   12.48000000    7.00572000     -0.110366    0.49922400    0.19153900
Se   19.93662000   12.78542000   16.55853000     -0.447531    0.30113600    0.03926200
Se   22.31695000   13.68352000    6.53022000      0.075582   -0.01642500    0.30915400
Se   19.20177000   19.33674000   14.40882000      0.190915   -0.12576300   -0.42309900
Se   22.33738000   19.72602000    7.11245000     -0.756139    0.51798600   -0.17812700
Se   22.04443000   20.59310000   17.92505000     -0.288728   -1.64539700   -1.23361500
Se    4.10625000    2.66353000    5.53472000      0.350441   -0.68630100   -0.41834700
Se    7.51840000    2.72448000   15.36137000      0.063723   -0.54021700    0.21500200
Se    3.08203000    4.29844000    0.78533000     -0.444148    0.08732000   -0.04809100
Se    2.37491000   10.74862000   11.81491000     -0.431335    0.18169400    0.11235000
Se    0.67867000   12.03425000    3.39755000      0.004676   -0.10401900   -0.35379400
Se    2.09821000   15.14683000   14.92004000      0.584959    0.71954500   -0.75939500
Se    4.04191000   16.42981000   18.87150000      0.403489   -0.40513500    0.82265300
Se    4.65593000   18.60209000   12.84098000     -0.979656    0.28709500    0.21465400
Se    9.99195000    0.84635000    3.26951000     -0.438245    0.59170800   -0.22982600
Se   11.76629000    2.16089000   14.82724000     -0.703444   -0.60632100    0.02733400
Se    8.98581000   10.03093000    3.02306000      0.385754    0.33628100   -0.23228600
Se    6.53917000    8.31366000   17.59178000      0.249642   -0.08659500    0.48018700
Se   12.10476000   13.04795000    3.05090000     -0.262664   -0.39830600    0.78713900
Se    9.07593000   13.61204000   11.87418000     -0.389135   -0.85166900   -0.85723400
Se    9.16851000   20.92275000    1.87993000     -0.032118    0.16071400   -0.44621900
Se    8.99029000   18.39400000   13.84149000      0.832396    0.40179600    1.07222000
Se   19.44387000   22.30785000    7.49781000     -0.007863    0.44380300   -0.22993800
Se   15.36528000    2.28554000   12.27309000     -0.026457   -0.15374300    0.89947900
Se   14.85835000    6.96354000    3.27400000     -0.420947   -1.63042500   -0.53626600
Se   14.74174000    6.13893000   16.17330000      0.828515    1.29219800    0.20648300
Se   15.89091000   12.91399000    2.64341000     -0.454620    0.05786900    0.07048200
Se   15.14707000   16.82911000   12.70375000      0.729893   -0.74926900    0.25524400
Se   16.39290000   16.67101000    2.36542000     -0.287018    0.51575000    0.06767600
Se   15.16383000   19.45190000   15.28068000     -0.498060    0.08092500   -0.40893500
Se    0.09278000    0.10702000    4.49201000      0.153846   -0.38720500   -0.01252800
Se   22.25617000    0.46326000   13.89865000     -0.548335   -0.46695800   -1.31802300
Se   18.77289000    2.09748000    3.68876000      0.788391    0.32331700    0.53480700
Se   19.42762000    9.49800000   14.04924000      0.032020    0.62295300    0.79296900
Se    3.06874000   10.66995000    6.25350000     -0.888746    1.77463300    0.86892400
Se   21.34404000   15.11516000   15.98206000     -0.715375    0.40257400   -0.12412900
Se   22.75727000   18.19223000    2.60667000     -0.109700    0.42142300    0.09896500
Se   22.34808000   19.45846000   10.99865000     -0.244399    0.68282000    0.33527400
Se    0.65156000    5.00577000    4.71236000     -0.454587    0.19952600    0.33321700
Se   21.25513000    4.79882000   15.13339000      0.598499    1.09878300    0.47958500
Se   21.28370000    9.83386000    2.76335000     -0.852020    0.15706500    0.39358300
Se   22.04460000   11.53550000   13.69512000      0.937525    0.62992500   -1.03537700
Se    2.05868000   13.71964000    0.48008000      0.465676   -0.13009900   -0.04499400
Se    2.59711000    1.56751000   13.38118000     -0.155593    0.13468000   -0.35768400
Se    3.66959000   22.51124000    2.69243000     -0.533228    0.94175600    0.06292100
Se    5.26690000   19.13646000   15.10578000      1.278499    1.42560900   -1.58984000
Se    9.40053000    4.84130000    8.37474000     -0.000571    0.33723500    0.40517900
Se    8.57466000    5.17346000   13.71344000     -0.061837    0.34971700    0.17776700
Se    5.55084000    6.24015000    4.08337000      0.701561    0.01898700   -0.82704600
Se    7.88285000   11.14234000   12.05807000      0.110162    0.30090500   -0.42536200
Se    7.87739000   15.52724000    2.79682000      0.390524    0.35253600   -0.94959700
Se   11.56607000   15.51727000   13.28947000      1.035872    1.23285500    0.87249300
Se    7.46996000   22.28776000    7.21725000     -0.093463    1.16974900   -0.24320800
Se   10.05483000   21.24573000   12.04466000     -1.990806    1.19282300    0.19441400
Se   12.37383000    0.20394000    3.01849000      0.648314   -0.01380600    0.53354000
Se   10.14716000    2.14263000   12.99546000     -0.313602    0.39145300   -0.30659800
Se   15.23091000    9.19277000    3.60439000     -0.633753    1.76033400    0.72201600
Se   11.30840000   10.88697000   13.67566000     -0.951983    0.35110400   -0.51815300
Se   12.49623000   17.14543000    1.53240000      1.018389   -0.74151300    0.43506400
Se   13.43036000   17.69084000   13.92117000     -0.102344    0.51211600    1.14733100
Se   11.47026000   19.86297000    3.76533000      0.750824    0.51973700    0.21784900
Se   14.06640000    0.13233000   15.36418000     -1.036034   -0.61401700   -0.16803900
Se   20.54487000    3.06417000    0.64548000     -0.863396   -0.31369000   -0.84000600
Se   17.38669000    6.64648000   13.04876000      0.171708   -1.47806600   -1.23518800
Se   18.69198000    7.69010000    4.36620000      0.335683   -0.10116200   -0.13999900
Se   20.27765000   13.65878000   12.31972000      0.610264   -0.90170800   -0.54341600
Se   22.86004000   15.80924000    2.73698000     -0.476915   -1.18236800   -0.08478400
Se   18.51717000   14.99384000    9.56883000     -0.003288    0.23623400   -0.86257900
Se   20.07370000   20.64199000    4.76827000      0.234108    0.83292800   -0.47139000
Se   17.57562000   21.95406000   11.21866000      0.557679    0.41749600    0.74061100
