384
23.00800000 23.00800000 19.32000000
Ge    5.27825000    5.20622000   10.81598000      0.171714    0.43599700    0.01174200
Ge    4.81685000    5.89502000    1.50945000      0.901080   -0.01226800    0.11175100
Ge    1.49173000   11.88147000    8.18340000      0.334444   -0.16228600   -0.36263700
Ge    6.14108000   11.38270000   17.89646000      0.651726   -0.92616900    0.55879700
Ge    4.28375000   15.02863000    9.80720000     -0.075313   -0.18016800    0.26189500
Ge    8.48348000   18.47181000    1.07648000     -0.535845   -0.20532900    0.33485800
Ge    9.31871000   20.06413000    9.40107000     -0.331365    0.67375400    0.71059200
Ge    5.01421000    1.55254000    0.08489000     -1.366180    1.95162900   -0.59875400
Ge    8.50213000    5.07715000   11.17785000     -0.234548    0.24902000    0.68503400
Ge   11.44125000    5.36113000    0.88178000      1.373989   -1.16112500    0.33561200
Ge   10.52906000   11.50818000    9.18531000      1.594962    1.87485500    0.64923100
Ge   10.51510000   11.89612000   17.50759000      1.313837    0.90469600   -0.97840800
Ge   10.02925000   17.03075000    7.98320000      0.496643   -1.75864700    0.29328500
Ge   11.89038000   14.61333000    0.41027000      0.123045    0.96056500   -0.32539900
Ge   10.23341000    1.96258000    9.42070000      0.543024   -0.44097700    0.30764200
Ge   15.45189000   21.41800000    0.26760000     -0.153713   -1.55955700    1.97035600
Ge   19.05281000    5.72652000   10.02326000      0.580758   -0.40924600   -0.55781200
Ge   19.29085000    9.22887000   15.97632000     -0.703009   -0.35466200    0.83867700
Ge   21.34360000   14.34766000   10.51563000     -0.380823   -0.22187000    0.87472400
Ge   16.62591000   11.35917000   18.41619000      0.366481   -0.68568500    0.66307700
Ge   13.90969000   16.32703000    8.34133000      0.028446    0.05590900    1.10253500
Ge   18.26119000   14.94929000    1.42694000     -1.336301    0.97119700   -0.07770500
Ge   18.27328000    0.68075000    9.41951000      1.189105    0.51237500    0.54934700
Ge   17.68058000    2.02880000    0.81514000      0.880907    2.41155700   -1.12835100
Ge   22.15540000    5.37867000   10.14728000      1.191241    0.04688000   -0.80722500
Ge   20.13659000    3.71781000    0.79008000      0.181913    0.56048100   -0.86564400
Ge    0.65767000    9.77257000    9.57162000      0.083588    0.08610600    1.16728300
Ge    1.27046000   12.02546000   18.86790000     -1.215573   -0.67925400    0.21551200
Ge   21.87229000   15.63762000    8.12253000      0.452935    0.51252100    0.02846600
Ge    2.11803000   15.95946000   17.76227000      0.251678    0.15888900    0.09428200
Ge   20.00951000   21.61079000    9.88362000      0.691845   -0.20535700    0.50040500
Ge    1.62976000   22.06624000    0.04498000     -0.226726   -0.29609700    0.83929200
Ge    5.61331000    8.93064000    7.90792000     -0.075317   -0.06635500    0.19133700
Ge    0.45525000    6.44553000   18.96878000     -0.561597   -0.41760900   -1.62345600
Ge    0.73383000    8.53028000    5.32625000      0.700685   -0.20853900   -2.01143400
Ge    4.30239000   13.64396000   16.88840000     -0.343105   -0.86215900   -0.40418700
Ge    4.50848000   18.39954000    2.51767000     -0.999211   -0.36108300    1.56857700
Ge    2.27439000   19.59216000   18.19877000     -1.021492    0.01961100   -0.22652600
Ge    5.40868000   19.04979000    9.72001000      0.592728    0.16018400    1.92434100
Ge    3.41978000    0.05531000   17.47438000      0.710129   -0.21986200   -0.29274700
Ge    9.25539000    4.07361000    7.53537000     -0.531317   -0.13625800   -0.26306500
Ge    8.22105000    5.31178000   17.66942000     -0.150789   -0.22399600   -0.59333400
Ge    6.76218000   12.75269000    4.20142000      0.491797    0.34796700    0.16736100
Ge    8.18656000    7.85041000    1.05733000      0.855038   -0.60345600    1.62208200
Ge    6.22352000   16.87972000    7.45498000      0.415708    0.08774500   -0.43084500
Ge    8.60740000   15.51901000   17.25664000      0.394893    1.06741400   -0.65361500
Ge   10.64923000   22.99545000    5.14313000     -0.199938   -0.26307100   -0.23163100
Ge   11.31282000   21.67879000   14.16539000     -0.420858    0.94996800   -0.32898700
Ge   13.35759000    6.13657000    8.40912000      0.874336    0.80729500   -0.04435300
Ge   13.88291000    6.80658000   16.70657000     -0.244529   -1.03327000   -1.35365400
Ge   13.35011000    9.80848000    7.49174000      0.134568    0.06962700    0.07651600
Ge   15.21338000   13.25984000   15.70197000     -0.028847   -0.21750600    1.23145400
Ge   13.59384000   16.88683000    5.37154000     -1.482166    0.75501300   -0.23413900
Ge   14.01746000   17.70785000   18.97890000      1.095431   -0.78838500   -0.90044100
Ge   13.97298000   22.17262000    8.38422000     -0.714087    0.45465500    0.29945900
Ge   16.22670000    1.58623000   15.04828000     -0.628556   -0.17892900   -0.86300700
Ge   20.04377000    3.53447000    6.51104000      0.089561    0.37567800    0.66137000
Ge   20.20070000    6.08892000   16.52238000      1.043534   -0.85841900    1.04834700
Ge   17.37109000   10.54344000    7.60740000      0.083237    0.47270400   -0.58868600
Ge   19.76776000   13.35530000   17.49481000      0.140529   -0.45607800    0.68395400
Ge   17.90358000   16.47825000    5.47151000      0.366902    0.19325600   -0.35746100
Ge   18.48948000   20.72216000   17.45996000      0.297640   -0.50519900    0.68637300
Ge   21.77971000    1.62513000    7.64176000     -0.324851   -0.89925800   -0.66060300
Ge   19.18471000   22.15421000    0.48076000      0.418295   -0.31524800    0.35101600
Ge    5.10391000    2.85882000    7.48468000      0.663784    0.55166600    0.28064400
Ge    4.09338000    4.70623000   16.02433000     -0.064524    0.04354800   -0.39097800
Ge    3.48582000    7.02856000    4.43002000     -0.913634   -0.02303100   -0.13291100
Ge    2.57427000    9.85442000   12.85855000      0.963996   -1.39707100    0.25860200
Ge    1.73254000   15.37161000    3.39362000     -0.386868    0.03107300    0.26661100
Ge    0.72785000   18.85836000   14.80473000      0.061543    0.22604400    0.23661000
Ge    2.37318000    1.52822000    8.39835000      0.263352   -0.14624700   -0.21592200
Ge    5.35730000   18.23606000   15.89259000     -0.105563    0.40444400   -0.80365300
Ge    9.16863000    3.08765000    2.81295000      0.471328   -0.03898400   -0.60793200
Ge    9.62207000    1.06747000   15.59966000     -0.937205    0.35462100   -1.93276400
Ge    8.53716000    9.44443000    5.28343000      0.709129    1.11635100   -0.52398800
Ge    9.76745000    9.10798000   14.25131000     -0.378384    0.50756200   -0.47830100
Ge   11.01250000   14.27544000    5.08883000     -0.732818    0.21334300   -0.68965400
Ge   12.02869000   11.94112000   13.52209000     -0.215069   -0.08610000    0.43276000
Ge    5.69899000   21.55034000    2.83759000      0.374088   -0.49056600    0.26143000
Ge    9.48710000   18.93941000   15.94842000      0.151872    0.03639200    0.14195600
Ge   13.60276000    1.54137000    6.35951000      0.309308    0.35890900   -0.60556700
Ge   11.72388000    4.71669000   15.43303000     -0.583547   -1.12552200   -1.03474100
Ge   15.71583000    6.47368000    6.39299000     -0.293258   -0.30542500   -0.28974000
Ge   14.71911000    9.08172000   14.62319000     -0.287804    0.62299500   -0.03231700
Ge   15.38016000   13.38961000    5.66433000     -0.216112   -0.11693100   -0.60853500
Ge   15.02200000   16.74486000   14.43097000     -0.331388   -0.04452900    0.69087000
Ge   11.36652000   17.71541000    2.89927000      0.234977   -0.02972200    0.15952600
Ge   10.36584000   21.47572000   16.80573000     -0.062597    0.12205500    0.72349300
Ge   18.06625000    5.50014000    3.67228000     -0.490272   -0.26098000    0.03118500
Ge   21.10980000    2.58930000   12.28929000     -0.318726   -0.47559600    0.06520900
Ge   19.98061000    8.22785000    5.80741000     -0.210827    0.34724700    0.38836500
Ge   18.43163000   11.72238000   14.26307000      0.544158    0.00470000   -0.51404900
Ge   21.60617000   15.71044000    1.56275000     -0.801507   -0.24858500   -0.03907600
Ge   19.19239000   14.78850000   13.29686000      0.482299   -0.26321100   -0.68086800
Ge   19.38153000   19.60070000    5.47484000     -0.054280   -0.56358300    0.41361200
Ge   22.26573000   21.42958000   15.50275000      0.974595   -1.17489900    0.41987600
Ge    5.67969000    2.41327000    3.59645000     -0.129400    0.43262300    1.49198200
Ge    5.38973000    1.75663000   14.42729000      0.027283    1.15872800    0.69546000
Ge    5.89268000    9.21741000    4.01165000     -1.324804   -1.04035600    2.19131700
Ge    6.52296000    8.59256000   13.04476000     -0.341457   -0.00492400   -1.31780900
Ge    6.66271000   15.36750000    3.03135000      0.013877    0.29060800    0.09199100
Ge    3.66810000   13.92816000   13.45732000     -0.206280    0.57586000   -0.26071000
Ge    5.31464000    0.26016000    5.91103000      1.077543   -0.54391000    2.10244100
Ge    7.53829000   20.21050000   12.41407000     -0.674078    0.02920600   -0.46926000
Ge   11.60463000    4.33486000    4.49237000      1.099266   -0.82886100    0.44377900
Ge    8.12813000    2.19423000   13.02197000     -2.069556   -1.16780500    0.55232500
Ge   11.37817000    9.19234000    0.56554000      0.882580   -0.49935000    0.87270300
Ge   12.01455000    6.82042000   13.00530000      0.626312   -1.14669600    0.40966700
Ge    9.53266000   13.10370000    1.40959000      0.829881    2.26402600    1.29231500
Ge    8.90400000   14.87498000   11.79328000     -0.124773   -0.17604600    0.24372700
Ge   12.25647000   20.47252000    0.35535000     -0.994905   -0.40591800   -0.86113100
Ge   12.14408000   19.57044000   11.15470000      0.425276    0.63271100   -0.21941900
Ge   21.54906000    0.59134000   17.63784000      0.344295    0.57270600   -0.16858400
Ge   14.64877000    5.49180000   12.46557000      0.039758   -0.13733700    0.28213700
Ge   17.34454000    8.30898000    1.30675000      1.154829    0.26829700   -0.13459300
Ge   14.99305000    9.40249000    9.99365000     -0.314567   -0.00941100   -0.01236700
Ge   16.77274000   11.82097000    3.05891000      0.930843   -0.58663200    0.22330800
Ge   18.01512000   14.67456000    8.72109000      0.376344    0.87245200    0.47596000
Ge   17.82009000   17.94894000    2.01215000     -0.256093    0.20462000    1.19185800
Ge   15.97768000   21.09599000   12.09222000     -0.907703   -0.00407400   -1.19097000
Ge    0.40294000    1.90761000    1.71199000     -0.101033   -0.38915000   -0.64475800
Ge    0.13903000    0.00356000   11.36421000     -0.043545   -0.08677800   -0.41030900
Ge   21.87545000    7.14666000    3.20490000     -0.064568    1.00125800   -0.62762900
Ge   22.34978000    9.56474000   12.48849000     -0.108631    0.02315200    0.24252400
Ge   22.19767000   12.98600000    4.35946000      0.244404    0.07989800   -0.27836400
Ge    1.19244000   16.21716000   10.19535000     -0.088994    1.03854400    0.37354500
Ge    0.96488000   20.48238000    4.06789000     -0.945135    1.30013400    0.53335500
Ge   20.81192000   17.69630000   11.86166000      0.467162   -0.73493100    0.00459300
Se    0.94594000    1.27621000   18.30259000      0.109302    1.01601600    0.73990100
Se    1.43849000    3.66843000   11.88401000     -1.431848   -0.93191500   -1.77245300
Se    0.96488000    7.02525000    1.76986000      0.462499    1.20504400    2.08181300
Se    0.45695000    7.60021000   11.79619000      0.975597    0.19118300    0.06757000
Se    3.34916000   11.26612000    0.52647000      0.565706   -0.14931700    0.47546800
Se    1.86989000   13.98766000    9.40004000      0.043148   -0.74424400    0.43941700
Se    1.76073000   18.69609000    2.99978000      1.228379   -1.85788400   -0.82238800
Se    1.36665000   18.88743000    9.81500000     -0.013107   -0.34464300    0.29425900
Se    7.18873000    1.86382000    1.83398000      0.734438   -0.26641600   -0.34038600
Se    7.57726000    1.43757000   10.34363000      0.101162   -0.04523100    0.38492900
Se    7.25388000    5.44032000    0.75455000     -0.746576   -0.13723200    1.15175300
Se    9.91139000    6.95440000   11.87687000     -0.177747    0.54395000    0.01220700
Se    8.38251000   11.25569000    0.83637000     -1.223015   -1.62665100   -0.85678900
Se    5.98620000   13.71895000   12.67896000     -0.203470   -0.19984400   -0.70493200
Se    4.87425000   20.07716000    1.07622000     -0.131097    0.70052500   -1.48554800
Se    9.34306000   18.67825000   11.82044000     -0.189052    0.12797600   -0.44999700
Se   14.45571000    2.83219000    0.29389000     -0.976689   -1.59714900    0.05069900
Se   12.81337000    0.91475000   10.25715000     -0.036587   -0.10610000   -0.05200700
Se   10.16721000    6.92222000   19.11820000      0.236126    2.06304800   -1.61784700
Se    9.39714000    9.49326000    8.60231000      2.270642   -3.24296800   -1.03620900
Se   11.82759000   12.21905000    0.61375000      0.298931   -0.95989600   -0.24825400
Se   13.09749000   11.18558000   10.43611000      0.458014    0.89536000   -0.21207900
Se   15.33005000   15.34988000    1.94448000      0.413593    0.52630300   -0.40033600
Se   11.70373000   17.24281000    9.74700000      0.207708    0.10719300   -0.58869100
Se   16.64230000    3.46314000    2.61382000      0.211272    0.51965200    0.24176800
Se   16.17994000    3.06032000   11.08510000     -0.656280    0.71156300   -0.10361300
Se   16.03775000    7.07344000   17.96749000      0.268885    0.39573000    0.50455800
Se   20.68649000    6.60191000   11.55822000     -0.910069    0.04161900    1.18822100
Se   18.78839000   10.16227000    0.25044000     -0.986067    0.15365000   -0.28206500
Se   16.37027000   15.27988000    7.06614000     -0.524393    0.58812500    0.56273000
Se   19.54594000   17.31012000    0.44729000      1.022845   -1.21742900   -0.14648900
Se   17.80261000   19.74470000   11.15567000      1.167802   -0.29144100    0.02115400
Se    4.13020000    3.72455000    2.19351000     -0.782532    0.15487000   -0.04156800
Se    3.82825000    6.62204000   12.23225000     -0.184119   -0.54733100    0.30014800
Se    6.44244000   10.04810000    2.05080000     -0.117166    0.98140400   -1.34962900
Se    4.95553000   12.68425000   10.55090000      0.299345    0.35025400    0.95647200
Se    4.39326000   15.59031000    4.42161000      0.169744    0.47970100   -0.97698600
Se    3.18024000   16.32848000   11.77195000      0.554722   -0.66309800   -0.11593900
Se    2.91602000    1.06406000    1.73110000     -0.316324   -0.47580600   -0.53508200
Se    6.89567000   21.14687000    9.99656000      0.644532   -0.72561200    0.70833400
Se   11.04042000    6.30991000    2.98730000     -0.198486    0.57017500    1.13192700
Se    7.26670000    3.48229000    9.27905000     -0.141467    0.15123800    0.20742900
Se   10.46062000    9.57799000   17.75624000     -0.493106   -0.18038500   -0.93981400
Se    7.66853000   10.58899000    9.14628000     -3.646721    1.93280000    0.88930200
Se   10.57039000   17.48981000    0.53613000      0.114880   -0.02153900   -0.41429700
Se   11.46231000   14.73215000   11.50873000      0.057686   -0.14037400   -1.31856000
Se   13.45502000   22.43606000    0.97310000     -0.412642    1.28156800    0.18936700
Se   11.24962000   22.00283000   11.36391000     -0.087479   -1.09858500    0.73684900
Se   13.79153000    4.66914000    1.39947000     -0.040908    1.53781900    0.65912400
Se   17.24851000    7.22658000   10.41882000     -0.628999    0.44640700    0.20965000
Se   15.21971000    9.29654000    1.35429000     -0.840291    0.87969900   -0.16482900
Se   15.48409000   10.27302000   12.45845000      0.452792   -0.11741600    0.18101300
Se   18.90343000   13.91521000    3.54721000     -0.836534    0.06745200    0.29097000
Se   14.68222000   13.17573000    9.85192000     -0.330981   -0.99133800    0.00112600
Se   16.97809000   22.97898000    1.54042000     -0.098421   -1.80058100    1.51747100
Se   14.42666000   20.19519000    9.70308000      0.385441   -0.13600500    0.99668200
Se   20.70885000    1.22762000    1.27874000      0.120853   -0.68388300   -0.08636600
Se   21.87297000    2.76240000    9.86313000     -0.377312    0.40962000    1.92377600
Se   19.73711000    6.41668000    0.71280000      0.453843    0.34188200    0.27934900
Se   21.34934000   10.30908000   10.53138000     -0.738242    0.18134000   -1.00592000
Se   20.02142000   13.59813000    0.82568000      2.506338   -1.13430300   -1.25895900
Se   22.86101000   15.71949000   12.16565000     -1.075686    0.36559700   -0.18501400
Se   22.93059000   21.72935000    2.28660000      0.142129    0.54804200   -0.37952500
Se   20.10226000   20.36220000   15.53324000     -0.441132   -0.15681600   -0.35054200
Se    3.95179000    5.17347000    8.38029000      0.087502   -0.31820100    0.28017000
Se    1.24685000    6.57730000   16.51109000      0.055808   -0.88607700    0.11048300
Se    3.88441000   10.80172000    8.23839000     -0.543453    0.73449700    0.37058500
Se    3.70910000    9.69216000   18.07757000     -0.518432    0.10082500    0.10356500
Se    4.69185000   18.91290000    7.51824000     -0.162853    0.10754700   -1.29144300
Se    0.35425000   17.41282000   16.84840000     -0.265869    0.62143500   -0.33281400
Se    2.98133000   21.82226000   11.76654000      0.060429    0.17148800    0.37636700
Se    5.59306000   20.87961000   17.33129000      0.213359    0.72191400   -0.33666500
Se    7.19575000    3.58080000    6.02700000      0.209551    0.15290800   -0.28143500
Se    6.06583000    3.65085000   17.10460000      0.431771   -0.59101400    0.44229600
Se    6.26645000   10.74160000    6.08367000      0.603917   -0.50934100   -0.19449700
Se    4.80197000    6.88927000   17.07343000      0.102378   -0.12208500   -0.02186100
Se    6.47392000   16.60582000   10.01547000      0.065157   -0.03142500   -0.35258900
Se    7.14399000   17.39501000   18.63944000      0.061804   -0.26322100   -0.20877300
Se    8.46316000   18.65742000    7.56794000     -0.646410    1.04606000   -0.24532100
Se    6.15193000   22.61447000    0.30424000      1.335555   -1.80969100    0.42116600
Se   13.92408000    2.90493000    9.56591000      0.299101    0.90891500   -0.23485000
Se   13.12832000    4.45571000   17.29934000      0.142008    0.29991100    0.61441300
Se   13.02699000    7.77721000   10.13210000     -0.085995    0.93407200    0.44640600
Se   13.46746000   11.42742000   15.70377000      0.336502   -0.25260500   -0.17268200
Se   12.97326000   14.55518000    6.50981000      0.956409    0.58193600    1.02598100
Se   13.85225000   15.19969000   17.10755000     -0.203008   -0.83760700   -0.05303500
Se   13.09670000   21.49076000    5.81319000      0.583143    0.09175500   -0.98512900
Se   16.45159000   22.11656000   17.69918000      0.221255    1.02239200   -2.94336800
Se   18.21202000    3.54742000    9.10810000     -0.154932   -0.38192100    0.45570600
Se   20.15199000    3.87256000   17.43714000      0.130712   -0.82895700    0.48766100
Se   19.04184000    8.97954000    8.13111000      0.407526   -0.14548500   -0.03055500
Se   17.00417000   10.22555000   15.73748000     -0.690214    0.26553400    0.82453900
Se   15.22702000   16.33671000   10.63757000      0.104485   -0.26217700   -0.30238000
Se   18.11104000   15.02802000   16.22309000     -0.356113   -0.13557400   -0.02855100
Se   17.98697000   19.25343000    8.87126000     -0.433585    0.44823100   -0.29942300
Se   19.84647000   19.60035000    2.25136000     -0.032637   -1.43400800   -1.21150700
Se    4.42839000   22.77370000    8.30580000     -0.470670    1.35994300   -0.64150500
Se    1.58613000    4.06552000   16.40106000     -0.056469    0.93495600    0.43489800
Se    7.12069000    7.05687000   10.48401000     -0.677003   -0.13153700    0.39717800
Se    3.17745000    6.06573000   18.91922000      0.497422    0.11316300    0.20189900
Se    4.00357000   15.69170000    6.82687000     -0.066840   -0.57902500    1.04181600
Se    5.68887000   13.61697000   18.81547000     -0.579602    1.01295100    0.54799600
Se    3.28475000   20.43642000    9.85689000     -0.267013   -0.14502000   -0.49219400
Se    0.47624000   16.75232000    0.52575000      0.032068    0.52115800   -0.01478000
Se   10.00256000   22.39174000    8.31024000      0.224596   -0.37948700   -0.63357700
Se    9.78756000    3.86649000    0.14898000     -0.307715   -1.78472400    0.57305500
Se   11.66118000    4.78857000    9.14462000     -1.095359   -0.91373600    0.37200800
Se    6.64409000    8.31602000   18.73554000     -1.098115    0.46291600   -1.45852400
Se   10.97915000   14.04396000    8.67909000     -0.661565   -0.34312500   -0.54759200
Se    8.49832000   13.10981000   17.85054000     -0.702779   -0.52407000    0.59123800
Se   11.93324000   20.69064000    7.91416000     -1.416841    0.43996200    0.45926300
Se   11.55890000   14.65052000   16.64897000      0.009289   -0.08218900    0.86847800
Se   16.21703000    0.43794000    8.37383000     -0.243090    0.17736500   -0.74530400
Se   16.17056000    2.99366000   18.09348000      0.855040    0.40481700    0.15140700
Se   15.66876000    5.64046000    9.37392000      0.132781   -0.50132900   -0.35362400
Se   13.83465000    8.44351000   18.41380000     -0.063637    0.75577300    0.93982600
Se   17.14875000   12.28430000    9.46569000     -1.540268   -0.37693400    0.82063200
Se   16.81270000   13.87691000   19.01320000     -0.255136   -0.19795000   -0.04244400
Se   14.51603000   18.47365000    7.30784000     -0.135191   -0.19824000   -0.51870300
Se   16.71385000   18.54727000   19.25644000     -0.610198    0.29858300   -0.66834500
Se   22.49865000   21.63556000    9.19565000      0.023600    0.98814600   -0.00812500
Se   22.97055000    0.60568000   15.12139000     -0.564450    0.60887500    0.24265800
Se   20.71645000    6.16876000    8.23474000     -0.682958   -0.28655700   -0.20590500
Se   21.25825000    7.51941000   18.39240000     -0.163443    0.02389900    0.04320700
Se   22.10933000    9.61491000    6.66695000     -1.006614    1.09094600    0.49118300
Se   20.95119000   10.75130000   17.23989000     -0.876387    0.47015200    1.10603400
Se   19.76057000   16.63562000    7.55382000     -0.576542    0.39195200   -0.01167300
Se   19.97039000   16.20336000   16.98415000      0.493638   -0.55150400   -0.19654700
Se    3.25137000    2.80677000   10.47868000      0.322030   -0.48931100   -0.73236300
Se    3.03282000    0.41733000   14.95500000      0.095507    1.17010200   -0.19496300
Se    0.81806000    8.10272000    7.66361000      0.286295   -0.94581500    1.01720600
Se    1.39295000    9.78557000   17.10924000      0.585190   -0.09299200    0.14949500
Se    0.82689000   16.43830000    6.68488000     -0.572784    0.65584300    0.36870700
Se    1.60737000   13.47955000   16.89524000      1.110525    0.03939600   -0.51063500
Se    0.29856000   18.93461000    7.09268000      0.102479   -1.03547400    0.04955100
Se    2.34537000   20.71625000   15.96271000      0.054428   -0.83063700    0.21860000
Se    8.00015000    0.11938000    6.06379000     -1.007489   -0.45100200    0.30742200
Se   10.54553000    0.83669000   17.62712000      1.248482   -0.89290600    1.95905700
Se    7.76670000    7.34218000    6.09042000     -0.332109   -1.10933400    0.66716800
Se    6.84352000    7.03700000   15.31960000     -0.133645   -0.43044400   -0.52509200
Se    7.53575000   14.12447000    6.24248000     -1.140061   -0.24843700   -0.30100900
Se    9.07991000   17.10885000   14.10993000     -0.057643   -0.57893600    0.24934600
Se    5.41517000   19.40967000    4.49357000     -0.043611    0.16786300    0.19282400
Se    7.80348000   15.13573000   14.74831000      0.055519    0.36480200    0.85073900
Se   14.89336000   21.75993000    3.81878000     -0.041759    0.87369600    0.75955900
Se   14.13855000    1.39667000   16.64982000      0.410278   -0.06229300   -0.14876900
Se   13.06285000    7.54388000    6.47676000     -0.056603   -0.74694100   -0.68331300
Se   10.96412000    6.96591000   15.44712000      0.335913    0.52112100    0.17752200
Se   12.95826000   11.85592000    5.24917000     -0.689620   -0.49933900    0.74388500
Se   14.74675000   14.31675000   13.56372000     -0.352761   -0.27940000   -1.39732600
Se   10.25285000   16.66781000    5.59268000     -0.130192   -0.21260700    0.23204600
Se   13.87455000   19.73360000   17.27341000      0.166725    0.69829000    0.89541400
Se   20.36276000    1.18921000    5.12912000     -0.799420    0.24216100   -0.56071400
Se   18.60825000    0.50323000   17.76799000      0.311063    0.22874800   -1.08990100
Se   17.71481000    4.22831000    5.95867000     -0.227185    0.43864000   -0.22797800
Se   17.94101000    6.62855000   16.38699000     -0.262097    0.85864600   -0.62305800
Se   20.03842000   10.75288000    4.97373000      0.627681   -0.92149100   -0.80448800
Se   17.05966000   13.39188000   12.98033000      0.507225   -0.07890700   -0.24861300
Se   16.96130000   18.77236000    5.95665000      0.350710   -0.16263300   -0.22114600
Se   17.49771000   22.52770000   13.88867000     -0.102117    0.57657800    0.24525300
Se    3.45146000    7.08394000    7.05721000      0.780930    0.29963400    0.31447900
Se    2.90192000    4.37435000   13.34241000      2.349810    1.88136300    1.10440300
Se    3.36524000    9.59869000    4.15857000      0.106838   -0.77711300    0.16204900
Se    5.60185000   11.93677000   15.63034000     -0.728716    0.71747000   -0.89296000
Se    5.16237000   13.51146000    6.79406000      0.623455   -0.03663000    0.40379600
Se    4.00092000   17.97701000   17.91069000      0.192907   -0.52977100    0.89310400
Se    1.75534000   21.77966000    5.91393000     -0.062750    0.21320600   -0.05083800
Se    5.10441000   22.52572000   13.98369000      0.318768   -1.78923700   -0.36865000
Se   10.97490000    2.53335000    6.49546000     -0.177451   -0.44257400   -0.24113600
Se    9.60245000    3.49567000   15.96699000     -0.561118    1.23359000   -0.03103900
Se   10.94628000   10.39959000    6.33668000      0.080157    0.38029500    0.10935800
Se    9.84205000   11.61214000   14.90052000      0.497959    0.32642600    0.62046900
Se    8.48102000   14.98041000    9.28442000      0.789253    0.35751300   -0.38273200
Se   12.34176000   18.28183000   16.32815000     -0.939211   -0.41012600   -0.92262800
Se   10.11723000   20.15571000    4.10904000     -0.348911    0.63097800   -0.45281200
Se    8.37210000   20.75274000   18.12164000      0.068171   -0.07623900   -0.58125300
Se   14.08777000    4.40864000    5.29532000     -0.344653   -0.38285100    0.27035500
Se   18.46131000    2.89128000   14.99284000     -0.006096    0.23704400   -0.37850800
Se   15.79746000    9.19205000    6.51667000     -0.776574    0.51680100    0.04175300
Se   17.88516000    9.91714000   12.58626000     -0.189209   -0.09228800   -0.33202800
Se   17.96292000   12.17382000    5.76269000     -1.207951    0.16290700   -0.19210200
Se   16.76501000   18.24182000   15.97374000     -0.129002    0.49128000    0.90641900
Se   15.67705000    0.81457000    4.69973000     -0.383751   -0.52606000   -0.12427800
Se   18.80893000    3.50744000   12.65380000     -0.014881   -0.06536800    0.54065100
Se    0.00739000    3.79331000    7.64457000      1.209003    0.36520400   -0.09068200
Se   22.81450000    3.52767000   14.07095000     -1.275761    0.41368200    0.43404400
Se   19.40975000   12.81201000    8.38994000      1.912721   -0.22543800   -0.00893400
Se   22.62400000   11.60345000   15.96472000      0.148236    0.43937400   -0.86463700
Se   21.36001000   13.60392000    6.96226000      0.595780   -1.10979200    0.08305800
Se   20.69657000   18.01379000   14.22290000      0.144020    0.07239800   -0.08503000
Se   19.27005000   21.07508000    7.35360000     -0.436980    0.28205800    1.02042400
Se   22.51126000   21.33138000   18.14428000     -1.057254   -0.91474100   -0.26214600
Se    3.53500000    2.79283000    5.69788000     -0.664977   -0.12854500    0.48159800
Se    6.27613000    0.96679000   16.93254000     -0.288659    0.61087200   -0.76799600
Se   22.76864000    4.24760000    0.33633000     -0.478851   -0.90724600    0.05506400
Se    4.76749000    9.53927000   11.29050000     -0.721979   -0.12359400    0.51839500
Se    1.27260000   12.27005000    2.83988000      0.214342    0.39057200   -0.04441700
Se    3.86591000   15.68512000   15.74368000      0.533340    0.16301400   -1.40435000
Se    4.48820000   16.13015000    1.74826000      0.167280   -0.20408300   -0.28594000
Se    5.78816000   18.42678000   12.67286000     -0.263782    0.24114800    0.03698500
Se   10.91090000    1.01693000    2.52234000     -1.095112   -0.23700800    0.40504900
Se   11.63253000    1.42706000   13.90367000      0.510880   -0.35041000    0.53480000
Se    9.82894000    8.93530000    2.83462000      0.061234    0.02175000   -0.07997300
Se    7.89509000    8.88786000   16.24046000      0.125635    0.30862300    0.00817800
Se    9.28813000   12.38464000    4.10058000      0.318255    0.18412200   -0.79344900
Se    9.73522000   12.31665000   11.60765000     -0.159737   -0.02240000   -0.14120800
Se    8.73703000   20.78835000    2.24763000      0.360590   -0.10609500   -0.01266700
Se   11.42607000   19.16234000   14.01624000      0.247573   -0.77301300    0.50019700
Se   18.24073000    1.39854000    6.38647000      0.185445   -0.56736200   -0.10008300
Se   14.43854000    2.18889000   13.23154000      0.844445    0.12242100    0.02281600
Se   15.87284000    7.04605000    3.84879000      0.331778   -0.54908300    0.26334700
Se   15.09400000    5.12120000   15.03633000      0.349061    0.60110400   -0.80656400
Se   14.75723000   13.15974000    2.69772000     -0.755980   -0.79235400   -0.18203900
Se   17.58223000   16.75345000   14.33396000     -0.089554    0.06917700   -0.43233800
Se   15.49998000   15.80267000    4.39919000      1.206115   -0.38160600   -0.31589800
Se   16.50862000   20.35046000   14.32489000      0.118366   -0.00898700    0.67656300
Se   22.65967000    0.29429000    5.70344000      0.609578   -0.76982400   -0.19038500
Se   20.77954000    0.11526000   12.25449000     -0.254518   -0.01802300    0.28129600
Se   21.17123000    5.09168000    4.80340000     -0.365192   -0.21858300   -0.61531400
Se   20.87350000    8.78299000   14.27314000      0.335481   -0.31630300   -0.67706000
Se    1.09449000   13.42965000    6.20584000     -0.249411    0.13877100   -0.74867200
Se   21.59949000   14.22131000   16.19712000      0.477331    0.29558600   -0.04680300
Se   21.91884000   19.01669000    5.17083000      0.201642    0.14954800   -0.76383400
Se   21.56397000   19.29979000   10.19623000     -0.370177    0.14389300    0.14314000
Se    0.37578000    5.07455000    5.66334000      0.264543   -0.22779600   -0.49016700
Se   21.65118000    5.71029000   14.61461000      0.410109   -0.14115500   -0.81487900
Se   21.32684000    9.88046000    3.05171000      0.225766   -0.55182500    0.16535000
Se    0.86449000   11.43955000   12.50427000      0.141376    1.09136900   -0.03092700
Se    1.17863000   14.20897000    1.19035000     -0.379325   -0.49034700    0.58656300
Se    0.97438000   21.00798000   12.65905000     -0.257515   -0.01534100   -0.10355100
Se    3.97371000    0.34660000    3.92868000     -0.286610   -0.57174900   -1.27330600
Se    3.47968000   19.00679000   13.97244000      0.933064   -0.05812800    0.72230100
Se    9.58879000    6.48403000    7.51671000      0.142876   -0.18204200    0.08470000
Se    6.91709000    4.30410000   13.19744000      0.273986    0.49656900   -1.08205800
Se    5.88576000    6.48880000    4.07317000      0.014493    0.63060600   -0.63839600
Se    7.78975000   10.71738000   12.74212000      0.655482   -0.63621300    0.18418800
Se    8.02008000   17.47656000    3.38086000     -0.151876   -0.38028600   -0.41579600
Se   12.15484000   14.66963000   13.69199000     -0.390489    0.09713600    1.50847900
Se    6.64567000   21.07426000    6.84247000      0.342233    0.61592300   -1.00727700
Se    7.89048000   21.87883000   14.04166000      0.533272   -0.44761800   -0.12188600
Se   12.73463000    2.14279000    3.47039000      0.373722    0.52708100    0.60465300
Se   10.28841000    2.68176000   12.40220000      1.620034    1.17948800   -1.36785800
Se   13.79741000   10.50380000    3.58077000      0.782157   -0.23926100   -0.80451300
Se   12.15602000    9.21792000   12.95036000      0.054334    0.96834600    0.18000700
Se   12.22745000   15.20946000    3.06092000     -0.420554   -0.19426700   -0.11858900
Se   14.76591000   17.96220000   12.29406000     -0.315648    0.44977200   -0.60406400
Se   13.58094000   18.84371000    1.66271000      0.087806    0.58214200    2.07888700
Se   13.57322000   22.49569000   15.38607000     -0.290161   -0.50498200   -0.48281000
Se   17.23315000    5.59217000    0.93369000     -0.235608   -0.23501500    0.61345300
Se   16.81767000    6.42718000   13.27178000     -1.378274   -0.35477700    0.04992400
Se   17.73879000    8.57818000    4.01954000     -0.229718   -0.04510700   -0.85459300
Se   20.75678000   12.88881000   12.85170000     -0.330926    0.31189300   -0.42757300
Se   21.95135000   15.57661000    4.05101000      0.571795   -0.08718300   -0.67546100
Se   19.09878000   15.79960000   10.76452000      0.401843    0.23089000    1.04490800
Se   19.44881000   21.21501000    3.75085000     -0.506418    2.23182400    0.97395100
Se   16.25075000    0.68837000   11.22934000      0.437930   -0.86544700   -0.16734500
