384
23.00800000 23.00800000 19.32000000
Ge    5.29736000    5.16349000   10.69874000      0.231396    0.84339300    0.70368700
Ge    4.93385000    5.98875000    1.46646000     -0.138846   -0.30207400    0.07526700
Ge    1.49249000   11.94073000    8.16485000      0.412476   -0.70313800   -0.18645100
Ge    6.08833000   11.40378000   17.90772000      0.572464   -0.48793900    0.30909500
Ge    4.26624000   15.08322000    9.77846000      0.082000   -0.82450000   -0.27576600
Ge    8.35025000   18.34075000    1.03608000      1.158152    0.16338800    1.02407100
Ge    9.42689000   20.02101000    9.48916000     -0.383790    0.44677100   -0.08521400
Ge    5.02606000    1.71699000    0.06904000     -0.639622    0.42465500   -0.26445700
Ge    8.47592000    5.02796000   11.29486000      0.083194    0.67622900    0.27218900
Ge   11.35604000    5.29456000    0.95467000      1.149435   -0.80773000    0.04344200
Ge   10.53980000   11.59681000    9.27253000      0.577805    0.74241800    0.04932100
Ge   10.62482000   11.92602000   17.53258000      0.691836    0.49775300   -0.70335700
Ge    9.92602000   16.93803000    7.97290000     -0.041205   -0.96300100    0.36468600
Ge   11.83585000   14.66925000    0.41848000      0.169140    0.91668900   -0.24272000
Ge   10.24451000    1.99206000    9.29321000      0.691410   -0.77856700    0.33506800
Ge   15.48143000   21.32880000    0.30080000      0.419408   -1.06692900    1.13659800
Ge   18.99692000    5.72112000   10.00960000      1.358529   -0.46574700   -0.69083300
Ge   19.27052000    9.32583000   16.05196000      0.319921   -0.59211800    0.48630900
Ge   21.44091000   14.45131000   10.49922000     -0.984865   -0.81934000    0.53317700
Ge   16.68210000   11.40332000   18.42166000      0.156306   -1.08867200    0.57025400
Ge   13.89789000   16.29560000    8.39401000      0.149509    0.38053400    0.93694000
Ge   18.20674000   14.84693000    1.40404000     -0.359535    0.49213600    0.35675200
Ge   18.44309000    0.60821000    9.42752000      0.507761    0.96618200    0.25122500
Ge   17.75940000    2.12289000    0.82375000     -0.044754    0.69671900   -0.38139400
Ge   22.22150000    5.44944000   10.03189000      0.346713    0.30454700    0.08636400
Ge   20.19742000    3.69573000    0.77294000      0.088447    0.90520500   -1.04442300
Ge    0.70804000    9.84146000    9.59610000      0.086273   -0.04881200    0.89065300
Ge    1.15843000   12.07552000   18.91417000     -0.346978   -1.14635000    0.02625200
Ge   21.99267000   15.56637000    8.11090000     -0.138139    1.27664300    0.25779300
Ge    2.07985000   15.97706000   17.74826000      0.173790    0.00595700   -0.04562500
Ge   19.92427000   21.60702000   10.07667000      1.246748   -0.30333300    0.40412000
Ge    1.69286000   22.04180000    0.06231000     -0.421545   -0.48166700    0.75141500
Ge    5.72817000    8.94709000    7.84031000      0.050463   -0.17440700    0.61142000
Ge    0.48731000    6.44438000   18.94575000     -0.316227    0.36357500   -0.83475200
Ge    0.73058000    8.45672000    5.29058000      0.229668   -0.10610000   -1.54807700
Ge    4.25446000   13.63850000   16.94410000     -0.134538   -1.36695700   -0.68293500
Ge    4.50409000   18.48662000    2.63578000     -1.512181   -1.01262500   -1.08309300
Ge    2.26297000   19.50250000   18.21231000     -1.646051    0.66647800   -0.34465800
Ge    5.37573000   19.18139000    9.82891000     -0.112768   -0.62992400    0.44151000
Ge    3.35992000    0.02359000   17.51071000      0.623136   -0.05355100   -0.27187900
Ge    9.26859000    4.06263000    7.59723000     -0.230337    0.43591800   -1.10092100
Ge    8.24502000    5.24264000   17.70536000     -0.011586   -0.04349600   -0.49567000
Ge    6.76499000   12.69401000    4.19525000      0.377775    0.22468500   -0.25774500
Ge    8.22125000    7.87677000    1.13599000     -0.299725   -0.96277000    0.37220300
Ge    6.19782000   16.86909000    7.49365000      0.902446   -0.14786500   -1.08140500
Ge    8.56229000   15.47830000   17.30546000      0.515053    1.00436400   -0.57325800
Ge   10.61940000    0.00436000    5.09507000     -0.308750   -0.60471200   -0.11171900
Ge   11.29903000   21.75108000   14.17767000     -0.069860    0.91870500   -0.51495900
Ge   13.38382000    6.09279000    8.48961000      1.481988    1.03307500   -0.68376200
Ge   13.94646000    6.79103000   16.62311000     -0.285657    0.39876700   -0.26104000
Ge   13.28951000    9.71929000    7.52846000      0.187466    0.35630000   -0.11975500
Ge   15.16432000   13.30427000   15.80510000      0.099336   -0.30822000   -0.16513600
Ge   13.54021000   16.92406000    5.34107000     -0.684763    0.72042900   -0.69360300
Ge   14.20133000   17.78591000   19.02471000      0.477596   -0.88685800   -0.21623600
Ge   14.00116000   22.10503000    8.36730000     -0.864050    0.61860300   -0.00246700
Ge   16.36082000    1.56237000   15.05390000     -0.932753   -0.23193100   -0.67735400
Ge   20.07628000    3.53493000    6.64820000     -0.788746    1.05481800    0.00624000
Ge   20.25097000    6.15666000   16.61529000      0.653915   -1.20662900   -0.05922100
Ge   17.25642000   10.50034000    7.74591000      0.967720    1.14195300   -0.12523600
Ge   19.71120000   13.30028000   17.48890000      0.746795   -0.19010300    0.41887900
Ge   17.99862000   16.55602000    5.49823000     -0.024469   -0.10342800   -0.37676600
Ge   18.52412000   20.64396000   17.36890000      0.058135   -0.29101500    0.69651400
Ge   21.77120000    1.66861000    7.57982000     -0.088279   -1.60892700   -0.14144700
Ge   19.36508000   22.18132000    0.45943000     -0.497515   -0.56274200    0.31443200
Ge    4.98343000    2.92010000    7.45408000      0.872339    0.49763200    0.12825900
Ge    4.05321000    4.81172000   16.04766000     -0.375064   -0.67453400   -0.23318900
Ge    3.46061000    7.10905000    4.57559000     -0.725481   -1.40918700   -0.81466000
Ge    2.52041000    9.69186000   12.89639000      1.125132   -1.56287500    0.23945700
Ge    1.71732000   15.35831000    3.38924000     -0.121426    0.55118800    0.75046400
Ge    0.65989000   18.77727000   14.74542000     -0.018954    0.20045300    0.39592100
Ge    2.38634000    1.58367000    8.48416000     -0.370283   -0.73669900   -1.11072600
Ge    5.27776000   18.08211000   15.84517000      0.043526    0.25246600   -0.89397800
Ge    9.17855000    3.00466000    2.77344000      0.490029    0.19880000   -0.37137800
Ge    9.57003000    1.05002000   15.63681000     -0.860113   -0.43372300   -1.49307700
Ge    8.62016000    9.39279000    5.22505000      0.241498    0.71144200   -0.23154400
Ge    9.72135000    8.93100000   14.24591000      0.036436    0.36313000   -0.56272000
Ge   11.04668000   14.37139000    5.13134000     -0.442296   -1.15473700   -0.83210800
Ge   11.95622000   11.92183000   13.61424000     -0.400389   -0.20060300    0.19572000
Ge    5.63763000   21.45582000    2.93432000      0.783511   -0.35518300   -0.73481300
Ge    9.64403000   19.00979000   16.01417000     -0.217801   -0.30729800    0.17377700
Ge   13.67294000    1.61295000    6.27086000      0.135264    0.30053600   -0.62046500
Ge   11.67583000    4.64068000   15.39546000     -0.431572   -0.64386800   -1.49882100
Ge   15.72473000    6.38516000    6.41635000     -0.186089   -0.17166800   -0.09621600
Ge   14.71020000    9.20682000   14.65566000     -0.417531    0.36032600   -0.28162600
Ge   15.36920000   13.32109000    5.64163000     -0.039728    0.01190700   -0.53813200
Ge   15.02700000   16.83543000   14.46297000      0.045578   -0.30897500    0.02986600
Ge   11.38077000   17.71784000    2.75127000      0.135616   -0.18421900    0.31356600
Ge   10.46300000   21.49414000   16.74429000     -0.212463    0.28127300    1.09616900
Ge   18.06006000    5.55291000    3.60979000     -0.219045   -0.27895100    0.54512400
Ge   21.12538000    2.58253000   12.25536000     -0.021460   -0.04403600    0.52535100
Ge   19.94639000    8.27932000    5.81123000     -0.173083    0.34730100    0.67139200
Ge   18.49691000   11.70584000   14.32796000     -0.039213   -0.02688000   -1.01348800
Ge   21.73176000   15.69644000    1.48433000     -2.994135   -1.08101700    1.59926200
Ge   19.05268000   14.66365000   13.36249000      0.075682    0.42931300   -0.67802800
Ge   19.45060000   19.68894000    5.47150000     -0.233366   -0.91472400    0.09583000
Ge   22.21993000   21.37277000   15.55462000      1.804425   -0.12423600    0.14370100
Ge    5.65236000    2.43827000    3.57403000      0.049702    0.46467000    1.30069200
Ge    5.40360000    1.86333000   14.55674000     -0.036305   -0.00735800    0.09089800
Ge    5.80500000    9.12262000    4.09999000     -0.621866   -0.31474400    1.24128600
Ge    6.44347000    8.55889000   13.02382000     -0.207369   -0.08051100   -1.31928800
Ge    6.74594000   15.30687000    2.94029000     -0.515550    0.33400800   -0.02213400
Ge    3.51629000   13.97249000   13.26508000      0.584538    0.55882400   -0.23459200
Ge    5.32931000    0.13216000    5.97153000      0.808370   -0.35959000    1.17382400
Ge    7.48916000   20.27364000   12.39713000      0.240534    0.43840900   -0.11542700
Ge   11.59508000    4.37546000    4.46935000      0.628543   -0.71594700    0.46027700
Ge    8.07451000    2.25913000   13.01861000     -3.308617   -1.10974900    0.92354800
Ge   11.41821000    9.23587000    0.55123000      0.951294   -0.18879400    0.39495800
Ge   12.14719000    6.78499000   13.04182000     -0.396038    0.24203400    0.25660900
Ge    9.50437000   13.16937000    1.47013000      0.227818    0.60299000    0.83133600
Ge    8.89255000   14.93458000   11.83035000      0.344322   -0.22523200    0.05225100
Ge   12.21249000   20.51435000    0.50505000     -0.501760   -0.64443200   -0.51110100
Ge   12.14626000   19.50787000   11.27818000      0.560468    0.51063400   -0.49499300
Ge   21.53498000    0.50418000   17.55617000      0.577779    1.02558900   -0.21745800
Ge   14.63522000    5.57980000   12.41286000     -0.181280   -0.59725500    0.16477100
Ge   17.42258000    8.33197000    1.32995000      0.697681    0.07793700   -0.23922100
Ge   14.99197000    9.39806000    9.92794000      0.122294   -0.21737300    0.11909900
Ge   16.87226000   11.75698000    3.04635000      0.830474   -0.20054300    0.39853500
Ge   18.11336000   14.68108000    8.69534000      0.542572    0.62362900    0.15856800
Ge   17.77866000   17.87789000    2.01025000     -0.503889    0.33296600    3.17151500
Ge   15.94860000   21.02283000   12.05143000     -1.135775    0.34054300   -1.28093000
Ge    0.36432000    1.82068000    1.70939000      0.095527   -0.57019800   -0.52852400
Ge    0.19392000   22.83002000   11.41080000     -0.294668    0.62755400   -0.36596400
Ge   21.83968000    7.25986000    3.25471000      0.016289    0.35208600   -0.34228200
Ge   22.42845000    9.57516000   12.56565000     -0.751799   -0.58150700   -0.53187800
Ge   22.14374000   12.99749000    4.37663000     -0.295403    0.29739400   -0.49738700
Ge    1.14699000   16.14711000   10.24770000      0.483104    1.84420000   -0.11710000
Ge    0.98346000   20.40301000    4.04234000     -1.107044    1.34950200    0.19917500
Ge   20.84059000   17.70192000   11.85759000      0.362215   -0.62319000   -0.93076800
Se    0.95922000    1.31693000   18.38641000     -0.288156    0.55512600    0.48119000
Se    1.46016000    3.55195000   11.83314000     -1.034306   -0.05201700   -0.18367000
Se    0.91012000    6.98371000    1.86105000      0.308927    1.00441100    1.19024900
Se    0.58771000    7.55140000   11.95294000      0.630820    0.72508200    0.14297900
Se    3.40966000   11.17156000    0.47589000     -0.165747    0.50713800    0.55300600
Se    1.75814000   14.00406000    9.37214000      0.294184   -0.88160500    0.32755700
Se    1.64996000   18.64295000    2.86542000      1.469193   -1.83202700   -0.75695600
Se    1.26936000   19.02643000    9.84445000     -0.043145   -0.72867800    0.31595400
Se    7.23469000    1.84890000    1.76469000      0.232404   -0.55721500   -0.36332900
Se    7.54446000    1.38624000   10.32285000      0.037579    0.73215700    0.11434900
Se    7.17310000    5.32342000    0.74084000      0.244890    0.25965600    0.96197000
Se    9.98236000    7.00881000   11.80083000      0.323795   -0.01188000    0.54944900
Se    8.33313000   11.19423000    0.80683000     -0.552285   -0.35610100   -0.48652400
Se    5.99769000   13.74003000   12.68334000     -0.694587   -0.19494300   -0.47947000
Se    4.82583000   20.17593000    0.97779000     -0.326540   -0.39055100    0.14687700
Se    9.33916000   18.63015000   11.81314000     -0.500001    0.34024200   -0.07387400
Se   14.46662000    2.89920000    0.32757000     -0.498448   -1.00079800    0.05577000
Se   12.75478000    0.95042000   10.29673000      0.201373   -0.05573200   -0.30867500
Se   10.26508000    6.99820000   19.20023000     -0.241546    1.56601100   -1.93639200
Se    9.51031000    9.35030000    8.49546000     -0.620293    0.13447600    0.30789400
Se   11.87293000   12.24877000    0.62464000     -0.097052   -0.75373600   -0.15063200
Se   13.22869000   11.12265000   10.40471000     -0.177953    1.35110200    0.02665700
Se   15.30521000   15.30265000    1.90557000      0.244068    0.20662600   -0.01498500
Se   11.66025000   17.31440000    9.69036000      0.343461   -0.09231600   -0.51795700
Se   16.64750000    3.63043000    2.75135000      0.200470    0.04899900   -0.56860000
Se   16.19601000    3.00081000   11.01653000     -0.745103    0.93308400   -0.07266000
Se   16.09399000    7.14663000   17.90708000      0.213717    0.40178800    0.73617900
Se   20.57029000    6.74169000   11.54097000      0.026746   -0.74272800    0.18591600
Se   18.77385000   10.18316000    0.27788000     -0.582311    0.48648200   -0.31263800
Se   16.38816000   15.26535000    7.03686000     -0.201638    0.40968500    0.48510900
Se   19.40780000   17.39038000    0.48808000      2.387092   -1.63765100   -1.21020000
Se   17.71337000   19.67942000   11.15223000      1.678309   -0.51434400   -0.00391300
Se    4.13686000    3.71567000    2.14118000     -0.503884    0.58148100   -0.37304300
Se    3.81482000    6.60547000   12.28382000      0.046988   -0.85860100    0.02014600
Se    6.36900000   10.12832000    2.16186000      0.095350    0.73928000   -0.99488300
Se    5.02715000   12.71129000   10.58743000      0.117556    0.48396500    0.71720800
Se    4.30487000   15.61983000    4.46673000      0.493121    0.29446400   -1.41224200
Se    3.32144000   16.29289000   11.70610000     -0.256500   -0.30948700    0.49348000
Se    2.95297000    0.94463000    1.62132000     -0.269152   -0.39339700   -0.53441900
Se    6.90115000   21.10243000   10.01406000      0.890255    0.15470800    0.60667700
Se   10.96227000    6.40075000    2.93266000      0.009054    0.08058900    1.86739500
Se    7.32840000    3.49788000    9.10851000     -0.480335   -0.55730500    0.81018800
Se   10.51147000    9.50501000   17.68312000     -0.146033    0.61003000   -0.67349100
Se    7.54442000   10.68603000    9.16851000      0.325638   -0.41658300   -0.17351500
Se   10.61271000   17.40714000    0.39872000     -0.611350    0.29404800   -0.07456900
Se   11.50676000   14.63215000   11.52960000     -0.384796    0.07947600   -1.32067800
Se   13.52665000   22.44666000    0.97577000     -0.649984    1.16289800    0.17234800
Se   11.29900000   21.98056000   11.38147000     -0.169666   -1.13040400    0.66505800
Se   13.63216000    4.72792000    1.46255000      0.536582    0.93554400    0.27630700
Se   17.35886000    7.22217000   10.63545000     -1.035442    0.49702000    0.15338200
Se   15.23738000    9.35572000    1.29615000     -0.590606    0.59937100   -0.26431900
Se   15.55807000   10.31404000   12.42654000      0.264019   -0.34196700    0.18457400
Se   18.84117000   13.92182000    3.67544000     -0.788496    0.05853400   -0.29577400
Se   14.60590000   13.30398000    9.95954000     -0.210408   -1.14072200   -0.04308800
Se   16.90987000   22.94903000    1.63287000      1.010015   -0.52412500    0.42318800
Se   14.49845000   20.19264000    9.67483000      0.222779   -0.40675700    1.09981900
Se   20.66371000    1.24325000    1.14676000      0.591204   -0.56634300    0.39010800
Se   21.80036000    2.76948000    9.90851000     -0.126616    0.66305500    1.24423600
Se   19.74956000    6.39420000    0.72168000      0.168209    0.47016900    0.04552000
Se   21.37241000   10.28583000   10.51552000     -0.212808   -0.08578500   -0.39500400
Se   20.19949000   13.64610000    0.84784000      1.459891   -0.60981600   -1.14876000
Se   22.77199000   15.78206000   12.12845000     -0.685748    0.36475400    0.81054900
Se    0.03620000   21.75795000    2.20759000     -0.024790    0.50486700   -0.32087000
Se   20.10120000   20.46337000   15.46008000     -1.243391   -0.19425300   -0.39617100
Se    3.97341000    5.16825000    8.44056000     -0.106766    0.18805600   -0.47374200
Se    1.21547000    6.66170000   16.52181000     -0.090836   -0.98169100   -0.05571200
Se    3.97674000   10.76002000    8.27350000     -0.856134    0.76930100    0.43069200
Se    3.74275000    9.66383000   18.05843000     -0.491081   -0.16169300   -0.21602500
Se    4.69772000   18.75011000    7.42134000     -0.348800    1.18831700    0.28215100
Se    0.29281000   17.46188000   16.89537000     -0.031472    0.59238000   -0.38739600
Se    3.05549000   21.86173000   11.83668000     -0.147130   -0.26357400    0.00499800
Se    5.73303000   20.96649000   17.37534000      0.640695    0.92865100   -0.13478800
Se    7.19347000    3.57630000    5.94222000      0.198950    0.13109500    0.00084400
Se    6.06315000    3.65153000   17.13851000      0.248638   -0.28194900    0.28583200
Se    6.26605000   10.71949000    6.11657000      0.606365   -0.32016100   -0.72550800
Se    4.78674000    6.97136000   16.90347000      0.487635    0.23473700    0.16180400
Se    6.36575000   16.62648000    9.90577000      0.388650   -0.04817900    0.67128400
Se    7.12910000   17.38291000   18.67099000     -0.771415   -0.66273600   -0.78726400
Se    8.39705000   18.69196000    7.51316000      0.174592    0.43236300    0.25969400
Se    6.25731000   22.59193000    0.41091000      0.474878    0.09864900    0.05659700
Se   13.98683000    2.93992000    9.61937000      0.198409    0.68453300   -0.16183400
Se   13.04966000    4.55706000   17.27468000      0.337135   -0.23236800    1.10926000
Se   13.04168000    7.75464000   10.13032000     -0.145372    1.36554700    0.93604600
Se   13.48115000   11.38090000   15.65806000      0.193220    0.07726600    0.27058300
Se   13.03104000   14.71167000    6.49373000      0.778531   -0.23372800    1.02862900
Se   13.87015000   15.13856000   16.92193000     -0.172157   -0.16405500    0.61213700
Se   13.05624000   21.51848000    5.74951000      0.576218    0.22035900   -0.97302500
Se   16.47810000   22.18230000   17.69341000      0.198699    0.61032800   -2.19006900
Se   18.24709000    3.49702000    9.06573000     -0.108818   -0.27974700    0.43765300
Se   20.14007000    3.85798000   17.34642000      0.157813   -0.54481200    0.87782500
Se   18.88640000    8.85503000    8.22169000      0.607378    0.07397800   -0.57181100
Se   16.99536000   10.23305000   15.82368000     -0.709049    0.49098500    0.61150200
Se   15.23018000   16.31975000   10.55596000     -0.049511    0.26582300    0.36362200
Se   18.15053000   15.01068000   16.11496000      0.090276    0.38611900   -0.17557500
Se   18.03378000   19.20827000    8.87889000     -0.357604    0.24161600   -0.51096400
Se   19.98438000   19.61709000    2.20122000     -0.244563   -0.80464200   -0.53593300
Se    4.40417000   22.80731000    8.21510000     -0.429835    1.04767200   -0.02180600
Se    1.39418000    4.06129000   16.45320000      0.324686    1.06565700    0.27184500
Se    7.16329000    7.11983000   10.56727000     -0.770849   -0.33956500    0.35327600
Se    3.20575000    6.08763000   18.83479000      0.408495    0.08096500    0.25004900
Se    3.97036000   15.77106000    6.80984000      0.034428   -1.14684300    1.40082800
Se    5.62353000   13.71661000   18.83398000     -0.141673    0.73272700    0.61866700
Se    3.18741000   20.43234000    9.77403000      0.070807    0.43137900   -0.26858000
Se    0.40842000   16.69199000    0.54635000      1.587226    2.40198200   -1.41862700
Se    9.98567000   22.40627000    8.31410000      0.292257   -0.57622900   -0.39970600
Se    9.82697000    3.81094000    0.10309000     -0.557418   -1.83191500    0.21395700
Se   11.66282000    4.90239000    9.18551000     -2.063833   -1.59835900    0.70401900
Se    6.65891000    8.38100000   18.72370000     -0.493883    0.22991300   -0.68195300
Se   10.94386000   14.07431000    8.62072000     -0.638037   -0.32496700   -0.27153400
Se    8.48575000   13.08382000   17.88907000     -0.223216   -0.85020500    0.57303200
Se   11.88883000   20.64879000    7.84181000     -1.359837    0.63930600    0.75113300
Se   11.58011000   14.59015000   16.68489000     -0.442706   -0.18192700    0.78554300
Se   16.37086000    0.37486000    8.37408000     -0.467403    0.13621000   -0.34991300
Se   16.24896000    2.94415000   18.06635000      0.097264    0.50853500    0.51262500
Se   15.63782000    5.63323000    9.36603000      0.353547   -0.32082100   -0.16122300
Se   13.84033000    8.61040000   18.55575000      0.164654    0.11869500    0.38479100
Se   17.17056000   12.34093000    9.52002000     -1.357648   -0.18266200    0.44360100
Se   16.81274000   13.81660000   18.95383000     -0.080991    0.06585500    0.02444900
Se   14.63052000   18.40297000    7.22140000     -0.233041   -0.14189200   -0.29581200
Se   16.74498000   18.42158000    0.01530000     -1.319821    0.75704600   -1.79054100
Se   22.42176000   21.81427000    9.17309000     -0.269858    0.58572100    0.09080200
Se   22.98067000    0.66698000   15.06397000     -0.686989   -0.41817800    0.57724900
Se   20.70647000    6.21740000    8.16550000     -0.889654   -0.37933700    0.07572300
Se   21.24429000    7.58411000   18.30766000      0.260095    0.01351000    0.81884800
Se   22.13863000    9.61161000    6.70010000     -1.075999    1.02215000    0.12118800
Se   21.00286000   10.75980000   17.39947000     -0.114856    0.64337900   -0.08713900
Se   19.72316000   16.61245000    7.49301000      0.239173    0.06011000    0.36701100
Se   19.98105000   16.17591000   17.06364000      0.123286   -0.58877900   -0.46331600
Se    3.15547000    2.72315000   10.44228000      1.311965   -0.30591800    0.10675900
Se    3.08640000    0.57166000   15.04274000     -0.224939    0.62614800   -0.25989600
Se    0.76343000    8.12101000    7.67400000      0.338956   -0.92627200    1.06449200
Se    1.47307000    9.83609000   17.07946000      0.348711   -0.32544300    0.12957400
Se    0.82688000   16.32119000    6.66108000     -0.262972    1.16071600    0.17945100
Se    1.65184000   13.34322000   16.82033000      0.938476    0.44785600   -0.18938200
Se    0.29833000   18.92427000    7.08344000     -0.049476   -1.18178100   -0.43617200
Se    2.32280000   20.68537000   15.92648000     -0.045102   -0.72759100    0.53147400
Se    8.01667000    0.21428000    6.06708000     -0.946158   -0.53358900    0.42725300
Se   10.65540000    0.83349000   17.61760000      1.153536   -1.01897400    1.63063100
Se    7.77611000    7.29986000    6.19686000     -0.195191   -0.52402500    0.24814500
Se    6.89676000    6.99896000   15.25504000     -0.072270   -0.06021800   -0.18756500
Se    7.54207000   14.10055000    6.08773000     -1.126447    0.11444100    0.36668800
Se    9.11954000   17.10034000   14.19828000     -0.152816   -0.72678500    0.21333200
Se    5.28410000   19.50654000    4.53085000      0.394630    0.34481500    1.28635500
Se    7.96482000   15.00051000   14.74674000      0.040963    0.61851000    0.75807300
Se   14.78940000   21.72085000    3.89557000      0.377605    1.28227300    0.79749100
Se   14.15698000    1.46645000   16.74235000      0.400118   -0.59916100   -0.75362400
Se   12.98510000    7.49033000    6.56755000     -0.014750   -0.81074000   -0.83556100
Se   11.04142000    6.98624000   15.55253000      0.241917    0.44426600   -0.13204900
Se   12.95882000   11.87361000    5.11168000     -0.882568   -0.22922600    1.18288100
Se   14.70943000   14.30960000   13.46992000     -0.039904   -0.17935100   -0.08817000
Se   10.21710000   16.52747000    5.58578000     -0.725455    1.04955000    0.27978300
Se   13.95341000   19.70804000   17.36642000     -0.222939    0.79102900    0.59426600
Se   20.50832000    1.16736000    5.20289000     -1.513914    0.65206000   -0.57399000
Se   18.57678000    0.53868000   17.76225000      0.131922   -0.05293500   -0.67859400
Se   17.59064000    4.33743000    5.94860000      0.346215    0.32014900   -0.07242700
Se   17.94306000    6.65077000   16.40386000     -0.026054    0.75927200   -0.70970800
Se   20.09931000   10.76227000    4.85016000     -0.091417   -0.75299400   -0.17045500
Se   16.96703000   13.36686000   12.91683000      0.744854   -0.48498500   -0.01976400
Se   16.93510000   18.81794000    5.86740000      0.469277   -0.23431500   -0.06721500
Se   17.53229000   22.58336000   13.81668000     -0.428468   -0.17525100    0.45041000
Se    3.33593000    7.07828000    7.02718000      0.896516   -0.08046800    1.17703300
Se    2.89490000    4.41348000   13.42956000      1.157756    1.24878400   -0.17256900
Se    3.30972000    9.45696000    4.12707000     -0.169350    0.64350300    0.06036600
Se    5.54068000   11.92111000   15.58009000     -0.657122    0.79104600   -0.26501800
Se    5.22852000   13.46475000    6.73746000      0.382102    0.28475000    0.36433500
Se    3.99005000   18.00511000   17.89398000      0.623989   -0.95662900    0.90546600
Se    1.68324000   21.72566000    5.84722000      0.767443    0.10682500    0.32238200
Se    5.08107000   22.48243000   14.05439000      0.396515   -0.36253700   -0.06568800
Se   10.88640000    2.37570000    6.50381000     -0.036234   -0.04588300   -0.06458900
Se    9.58885000    3.39901000   15.87488000     -1.001995    2.01651600    0.26332600
Se   10.83489000   10.35019000    6.41013000      0.102684    0.14273500    0.08989300
Se    9.67014000   11.53040000   14.84693000      0.592438    0.20293600    0.39774200
Se    8.47011000   15.02633000    9.30001000      0.713587    0.15393300   -0.58021400
Se   12.34343000   18.27452000   16.25719000     -0.282104   -0.35981600   -0.18064200
Se   10.11879000   20.24157000    4.12105000     -0.545500    0.57368800   -0.93311000
Se    8.39566000   20.76938000   18.31838000      0.013405    0.10919000   -0.92291100
Se   14.01869000    4.45903000    5.28049000     -0.064705   -0.54475800    0.33955900
Se   18.55400000    2.95534000   14.99257000     -0.072697    0.06537100   -0.08372100
Se   15.79421000    9.29793000    6.49081000     -1.555775   -0.25645100   -0.45672600
Se   17.92034000    9.88693000   12.57013000      0.013768    0.18287800    0.11484800
Se   17.97740000   12.12775000    5.75454000     -1.128808    0.00715100    0.05043200
Se   16.79983000   18.30774000   16.03059000      0.133950    0.14848100    0.10638000
Se   15.79635000    0.81416000    4.75154000     -0.619764   -0.84894100   -0.31334100
Se   18.86913000    3.47088000   12.68548000     -0.266058    0.21335400    0.00180500
Se    0.00105000    3.78331000    7.64707000      1.230596    0.77764500   -0.26141600
Se   22.80368000    3.53801000   14.19265000     -0.765321    0.04002300    0.22453000
Se   19.45550000   12.70771000    8.36923000      1.106808    0.06074200    0.23437200
Se   22.71230000   11.65592000   15.93486000     -0.895821   -0.08448800   -0.09455500
Se   21.43723000   13.58795000    7.00473000      0.184001   -1.63692600   -0.20765200
Se   20.65050000   17.92819000   14.10881000      0.227170    0.07361900    0.72770600
Se   19.30634000   21.01529000    7.41943000     -0.311292    0.35554900    1.11603800
Se   22.42286000   21.29481000   18.14461000     -0.461054   -0.79771200   -0.16723200
Se    3.56611000    2.74367000    5.58572000     -0.754339    0.01983200    0.18374600
Se    6.24507000    1.02424000   16.84798000      0.023405    0.30598800   -0.10887600
Se   22.79383000    4.30589000    0.31105000     -0.601894   -1.28401500    0.18391100
Se    4.69744000    9.52358000   11.29944000     -0.676209   -0.04970700    0.43176800
Se    1.12067000   12.44506000    2.74087000      0.608742   -1.81967900    1.47734300
Se    3.86560000   15.62547000   15.78067000      0.235659    0.73157300   -1.77121400
Se    4.42871000   16.05561000    1.76204000      0.492554    0.64996500    0.18955300
Se    5.75166000   18.63357000   12.65183000     -0.482230   -0.61722600   -0.13342300
Se   10.89494000    1.00596000    2.55745000     -1.048775   -0.42104100    0.19506500
Se   11.59495000    1.41398000   13.96801000      0.377310   -0.14285400    0.30922200
Se    9.74809000    8.87906000    2.83465000      0.256516    0.47665700    0.54436800
Se    7.88366000    8.95273000   16.19413000     -0.200457   -0.20654600   -0.16024000
Se    9.35130000   12.38214000    4.16554000      0.321413    0.33706400   -0.87563700
Se    9.70566000   12.29725000   11.55026000     -0.160510    0.18390800    0.45741600
Se    8.72883000   20.78400000    2.13551000      0.544812   -0.55279000    0.43477500
Se   11.46246000   19.15874000   14.13187000      0.240563   -0.35549300   -0.07876600
Se   18.17718000    1.47151000    6.55310000      0.570720   -0.55501100   -0.11582000
Se   14.43207000    2.13734000   13.26948000      1.019170   -0.03607900    0.10047900
Se   15.91654000    7.12284000    3.92050000     -0.460843   -0.90326600   -0.10344000
Se   15.11171000    5.15980000   15.12316000      0.419140    0.04693800   -1.24881000
Se   14.76578000   12.97250000    2.65810000     -0.460603   -0.36807300   -0.29057700
Se   17.67303000   16.84916000   14.16504000     -0.668603    0.18341200    0.62432800
Se   15.48970000   15.74670000    4.31072000      0.873879   -0.24030300    0.00020100
Se   16.35234000   20.30199000   14.29375000      0.476817    0.47457300    0.89895300
Se   22.66279000    0.17102000    5.69367000      0.496682   -0.53883700    0.00561500
Se   20.74318000    0.20989000   12.21381000     -0.173417   -0.93876000    0.41922000
Se   21.13902000    5.02261000    4.68781000      0.012788   -0.39395300   -0.09198600
Se   20.78151000    8.77395000   14.15077000     -0.192100   -0.06976200    0.10308800
Se    0.96800000   13.31772000    6.15031000      0.431136    0.38579800   -0.67923400
Se   21.60013000   14.18537000   16.13022000     -0.085500    0.15791000    0.32964400
Se   21.95069000   19.04568000    5.05048000      0.407203   -0.11319600   -0.15538300
Se   21.63468000   19.28847000   10.19033000     -0.732643    0.02070300    0.31409500
Se    0.35454000    5.07442000    5.66497000     -0.096660   -0.17246100   -0.72160900
Se   21.71786000    5.60415000   14.51891000     -0.098081    0.61717700   -0.34082600
Se   21.41109000    9.82337000    3.08159000      0.532537   -0.51952400   -0.53376400
Se    0.92355000   11.38114000   12.50107000      0.210580    1.59672100   -0.07520900
Se    1.16774000   14.16634000    1.28333000     -0.188955    0.40748700   -1.25966700
Se    1.07068000   20.96592000   12.77877000      0.068702   -0.11701100   -0.27997700
Se    4.13206000    0.28152000    3.80923000     -0.532798   -0.11782200   -0.55085200
Se    3.52770000   19.08207000   13.96898000      0.668376   -0.06704300    0.91111600
Se    9.61604000    6.61206000    7.63195000     -0.001660   -0.74471500    0.14215300
Se    6.81892000    4.47827000   13.16339000      0.383508   -0.10412700   -0.77893500
Se    5.89453000    6.58026000    4.02072000     -0.004095    0.33320000   -0.35395300
Se    7.69059000   10.77721000   12.69448000      0.431330   -0.65226000    0.16713600
Se    7.91663000   17.45974000    3.35901000     -0.077501   -0.35398100   -0.55821400
Se   12.10094000   14.59669000   13.74354000     -0.278653    0.32305300    1.12025000
Se    6.72832000   21.07313000    6.89325000      0.097190    0.66346200   -1.04959400
Se    7.91935000   21.97956000   14.07518000      0.318016   -0.66949000   -0.49177400
Se   12.72398000    2.14553000    3.45279000      0.546144    0.57892100    0.70630700
Se   10.17316000    2.63752000   12.40946000      2.966550    1.07452200   -1.54425400
Se   13.84461000   10.47368000    3.53430000      0.616894   -0.27324300   -0.76609300
Se   12.24335000    9.35872000   12.97382000     -0.060618   -0.50274700    0.15545300
Se   12.23958000   15.18062000    3.07615000     -0.496485    0.05800300   -0.39323700
Se   14.74529000   18.09982000   12.27073000     -0.103306   -0.35018700   -0.55637500
Se   13.61146000   18.78514000    1.83630000     -0.065854    0.66509300    1.04042100
Se   13.57830000   22.42930000   15.36089000     -0.311679    0.20846700   -0.01876500
Se   17.21450000    5.56746000    0.92336000     -0.218104   -0.32366700    0.50023800
Se   16.70689000    6.32312000   13.42253000     -0.781965   -0.03843600    0.12271900
Se   17.70173000    8.62069000    4.02930000      0.372412    0.62600700   -0.63989000
Se   20.61156000   12.90933000   12.87543000      0.332709   -0.14645100   -0.46744200
Se   21.99408000   15.59462000    4.09349000      0.399973   -0.22264900   -1.09136600
Se   19.14621000   15.81958000   10.84505000      0.385784    0.12983600    0.68491000
Se   19.50042000   21.26036000    3.71705000     -0.367738    1.83393300    0.42338700
Se   16.13304000    0.65377000   11.18096000      0.562017   -0.97724800   -0.32821700
