384
23.00800000 23.00800000 19.32000000
Ge    5.38429000    5.20519000   10.58946000      0.386341    0.40357500    0.90266100
Ge    5.08199000    6.13999000    1.38871000     -1.302982   -0.14967100   -0.24759200
Ge    1.56453000   11.91805000    8.10154000      0.601966   -1.22721600   -0.13368800
Ge    6.05977000   11.39108000   17.97042000      0.217641    0.20486900    0.09834400
Ge    4.25514000   15.04590000    9.64648000      0.153269   -0.87514300   -0.61105400
Ge    8.26718000   18.12916000    1.09497000      0.928598    0.42840800   -0.59007800
Ge    9.57553000   19.99608000    9.63241000     -0.513241    0.11398300   -0.65649300
Ge    4.96078000    2.09219000    0.02293000     -0.150948   -0.22044400    0.49577100
Ge    8.47357000    5.03844000   11.53626000      1.299347    0.49491000   -0.81720200
Ge   11.24945000    5.11681000    1.06961000     -1.083664    1.19016400   -0.70894800
Ge   10.65406000   11.84243000    9.41285000      0.198673   -0.88082300   -0.83564200
Ge   10.92246000   12.04213000   17.50643000     -0.566074   -0.37955300    0.60567500
Ge    9.71773000   16.67476000    8.00041000      0.612340    2.04714500   -0.68223900
Ge   11.75760000   14.88572000    0.40714000      0.303457   -0.19069600    0.05930500
Ge   10.37483000    1.93365000    9.11252000      0.610435   -0.50626000    0.84234100
Ge   15.60277000   21.05663000    0.49365000     -0.017766    1.11650600   -0.34183300
Ge   19.04834000    5.66681000    9.90293000     -0.140579    0.16364900    0.40677200
Ge   19.27580000    9.41588000   16.26671000      0.230020   -0.59823600   -0.04968300
Ge   21.46927000   14.50510000   10.52438000     -0.910276   -1.27566800    0.07228700
Ge   16.79255000   11.31394000   18.50587000     -0.791268   -0.67054200    0.05115700
Ge   13.88527000   16.31633000    8.60542000     -0.621661    0.83422600   -0.73712200
Ge   18.06813000   14.70585000    1.41203000      0.278622    0.27333800    0.46149300
Ge   18.82937000    0.61734000    9.45071000     -0.267720    0.63420400   -0.66001100
Ge   17.89164000    2.38179000    0.79808000     -0.447893   -0.58567200    0.21514500
Ge   22.38746000    5.62537000    9.80469000     -0.267819   -0.17115100   -0.21727700
Ge   20.33904000    3.79825000    0.58179000      0.088248    0.59166100   -0.49498300
Ge    0.80992000    9.97492000    9.77343000     -0.168012    0.00751800    0.23432500
Ge    0.90954000   12.00616000   18.97725000      0.700521   -0.57434200   -0.46827000
Ge   22.16640000   15.59680000    8.14651000     -1.168755   -0.13663800    0.32390100
Ge    2.03789000   16.01093000   17.70990000      0.307560    0.08741000   -0.35274600
Ge   19.96395000   21.54028000   10.50499000      0.776585   -0.40690300   -0.48489300
Ge    1.76092000   21.92365000    0.17809000      0.159894   -0.69148200   -0.89784300
Ge    5.96269000    8.94778000    7.82794000     -0.040308   -0.10948100    1.17584500
Ge    0.51481000    6.49489000   18.84745000      0.039256    0.27702900    1.30994500
Ge    0.72553000    8.30223000    5.05714000     -0.488703    0.18828900    0.66237200
Ge    4.16788000   13.46127000   16.94637000      1.165005    0.52875500   -0.18073100
Ge    4.26142000   18.50692000    2.69104000     -0.728505   -0.32133300   -0.63875600
Ge    2.00632000   19.40971000   18.17442000     -0.556881   -0.21234700   -0.33918400
Ge    5.27226000   19.32607000   10.09188000     -0.348760   -0.53166900   -0.75926700
Ge    3.33192000   22.96369000   17.53259000      0.195087    0.04277400   -0.41416200
Ge    9.29282000    4.09999000    7.54167000      0.407580   -0.06569000   -0.96718500
Ge    8.28939000    5.09672000   17.70903000      0.064864   -0.03400900   -0.10434400
Ge    6.81400000   12.58330000    4.11511000      0.095268   -0.28443500   -0.92306500
Ge    8.19985000    7.77740000    1.28254000     -0.968007   -0.88749200   -1.20009000
Ge    6.29578000   16.82067000    7.37705000      0.542492    0.11769100   -0.90068400
Ge    8.55568000   15.51846000   17.32128000      0.484187   -0.07480600   -0.01453800
Ge   10.51027000   22.93889000    4.98771000     -0.239038   -0.83635300    0.18415700
Ge   11.27458000   22.01271000   14.11781000      0.234969   -0.64269200   -0.26963800
Ge   13.53501000    6.12929000    8.58127000     -1.969042    0.27290000    0.46321900
Ge   14.01957000    6.83034000   16.43093000     -0.444643    0.57126700    0.65043800
Ge   13.20390000    9.58928000    7.56796000      0.275936    0.11316800   -0.56957400
Ge   15.13201000   13.28639000   15.93156000      1.100484   -1.03873900   -1.39249100
Ge   13.35917000   17.10036000    5.16855000      0.566037   -0.12552500   -0.28498100
Ge   14.54820000   17.78892000   19.10907000     -3.142611   -1.01920100    0.43550900
Ge   13.92150000   22.06395000    8.35023000     -0.671364    0.40194800    0.28315900
Ge   16.48951000    1.48413000   14.95901000     -0.634089    0.19930700   -0.12615700
Ge   20.02357000    3.71092000    6.91093000     -0.365776    1.01221300   -0.42546200
Ge   20.41518000    6.08880000   16.73588000     -0.431713   -0.83066400   -1.19954000
Ge   17.15714000   10.54433000    7.99521000      0.155936   -0.13231200   -0.63186700
Ge   19.72406000   13.16840000   17.52454000      0.673723    0.36044600   -0.11813200
Ge   18.16142000   16.68002000    5.48580000     -0.637401   -0.60002400   -0.53838100
Ge   18.58784000   20.44230000   17.29013000     -0.188643    0.05597400    0.16986400
Ge   21.75690000    1.52325000    7.45230000      0.356609   -0.74440600    0.35137700
Ge   19.62679000   22.13218000    0.45123000     -1.060409   -0.83409100   -0.09981100
Ge    4.87588000    3.09531000    7.39115000      0.798287   -0.33991300   -0.63376300
Ge    3.90851000    4.91670000   16.07439000     -0.339001   -0.27801500    0.43686300
Ge    3.31440000    6.99811000    4.72761000     -0.251921   -1.64783000   -0.98931200
Ge    2.56392000    9.18435000   13.00486000      0.725776    1.00706800    0.55193200
Ge    1.67939000   15.42336000    3.48649000      0.143492    0.33638800   -0.03033500
Ge    0.51271000   18.65141000   14.68262000     -0.342228    0.27865800    0.08877400
Ge    2.32237000    1.56805000    8.44293000     -0.774985   -0.44360300   -1.12438000
Ge    5.13325000   17.80866000   15.63644000      0.573581    0.11337000    0.52158800
Ge    9.26303000    2.88832000    2.64534000     -0.128988    0.79543600    0.04951900
Ge    9.38620000    0.96088000   15.56846000      0.406923    0.39524300    0.61325400
Ge    8.78870000    9.37466000    5.09447000     -1.067770   -0.09070500    0.94399400
Ge    9.65430000    8.61871000   14.15394000      0.456087    0.10763800   -0.13918500
Ge   11.09434000   14.35224000    5.10801000      0.257867   -0.78081300    0.21599300
Ge   11.73357000   11.86556000   13.83222000     -0.569963    0.15115100    0.08655100
Ge    5.64335000   21.22095000    2.97766000      0.664846    0.01457500   -1.43796600
Ge    9.90237000   19.08867000   16.18551000     -0.745129   -0.59007200    0.31379100
Ge   13.82788000    1.80820000    5.99143000     -0.247363    0.21145100   -0.39459300
Ge   11.57160000    4.42095000   15.12215000      0.758972    0.35944100   -0.05142500
Ge   15.72538000    6.19888000    6.45385000     -0.159253    0.72906300    0.17461400
Ge   14.63594000    9.47226000   14.65803000      0.208538   -1.20219600   -0.86192300
Ge   15.33662000   13.20103000    5.51245000     -0.190231    0.43471600   -0.35252400
Ge   15.05920000   16.97131000   14.51076000      0.476198   -0.34819900   -0.58524300
Ge   11.41833000   17.68510000    2.50948000     -0.268798   -0.23958000    0.65511300
Ge   10.64269000   21.58778000   16.78082000      0.229451    0.08729000    0.33576600
Ge   18.05291000    5.65170000    3.59312000      0.908676    0.88261200    1.10526600
Ge   21.16214000    2.57535000   12.31030000      0.057582    0.18497400    1.53061200
Ge   19.85369000    8.42711000    5.92662000      0.118776   -0.02620000    0.54220400
Ge   18.61538000   11.65745000   14.31832000     -0.296702   -0.38032300   -0.54783800
Ge   21.60867000   15.56584000    1.52866000      0.305775    1.94664100    0.21256000
Ge   18.77036000   14.52251000   13.40451000      0.190658    1.43893300   -0.30792600
Ge   19.54946000   19.76166000    5.46010000     -0.367116    0.29009900   -0.23390600
Ge   22.37662000   21.22569000   15.66433000      0.159509   -0.40790100   -0.61733100
Ge    5.60904000    2.55257000    3.71249000     -0.259330    0.17929800    0.43139200
Ge    5.40104000    2.07952000   14.75569000     -0.697604   -0.15347200   -1.67806500
Ge    5.56469000    8.97802000    4.38716000      0.165934    1.98105500   -1.01788600
Ge    6.26338000    8.48151000   12.78866000      0.069964    0.05826100   -0.28433300
Ge    6.80801000   15.21259000    2.75605000     -0.884209   -0.23475200   -0.08429600
Ge    3.31786000   14.13255000   12.85961000      0.692483   -0.79887100    0.74066200
Ge    5.46594000   22.85666000    6.15163000     -0.751211    0.77997300   -1.94877000
Ge    7.46825000   20.46919000   12.36345000      1.030571   -0.38629800    0.53710400
Ge   11.64213000    4.35012000    4.48966000     -0.769302   -0.54417900    0.18246000
Ge    7.62004000    2.25823000   13.08490000      0.676200    0.14597300   -0.76434000
Ge   11.63036000    9.32378000    0.56279000     -0.343775    0.77357600    0.14523900
Ge   12.32261000    6.77152000   13.15701000     -1.067816    0.84132300    0.32242400
Ge    9.48071000   13.34890000    1.70215000      0.015592   -0.83083500   -0.19136600
Ge    8.92948000   15.01784000   11.91156000      0.527762   -0.22373300   -0.00490800
Ge   12.09878000   20.51855000    0.73689000      0.926681    0.14878400   -0.10762000
Ge   12.23297000   19.45124000   11.44583000      0.351631   -0.35918100   -0.50804100
Ge   21.60095000    0.49499000   17.36038000      0.542557    0.83585800    0.03730200
Ge   14.57212000    5.65618000   12.30361000     -0.155923   -0.67440400   -0.51033300
Ge   17.64652000    8.35908000    1.34325000     -0.314068   -0.73005200   -0.16252800
Ge   15.04444000    9.34553000    9.83197000      0.807351   -0.06415900    0.46121600
Ge   17.19290000   11.61264000    3.09146000      0.319802    0.49010100    0.46939200
Ge   18.37724000   14.76775000    8.65565000     -0.074625   -0.23555600   -0.26936700
Ge   17.65801000   17.77957000    2.37141000      0.594916    0.13634400   -0.59252200
Ge   15.73573000   20.91136000   11.79942000      0.270598   -0.05283500    0.11491900
Ge    0.30096000    1.57101000    1.65339000     -0.042830    0.00176400    0.71498500
Ge    0.25068000   22.58868000   11.45026000     -0.387230    1.03436100    0.13306600
Ge   21.77372000    7.46816000    3.32686000     -0.087039   -2.71783900    0.35693100
Ge   22.48157000    9.53513000   12.61675000     -0.436850    0.42502000   -0.83284100
Ge   21.95414000   13.06800000    4.32311000     -0.992655    0.13027500   -0.55288400
Ge    1.14594000   16.28294000   10.32267000      0.540485    0.85065500   -0.24150800
Ge    0.88801000   20.36907000    3.95805000      0.803989   -0.15976300   -0.74006700
Ge   20.93787000   17.63437000   11.70795000     -0.663481    0.14271200    0.33135600
Se    0.94632000    1.44825000   18.59181000     -0.020868   -0.60235300   -0.98053100
Se    1.37547000    3.33129000   11.72747000      0.024999    0.33155800    0.25707800
Se    0.82873000    7.02144000    2.15864000     -0.034840    0.18936000   -0.35377900
Se    0.92189000    7.57057000   12.27870000     -0.787960    0.12911500   -0.49961300
Se    3.49426000   11.06117000    0.45677000     -0.468910    0.49044300    0.24825000
Se    1.57100000   13.93398000    9.37032000      0.114951    0.06971700    0.60336900
Se    1.61627000   18.35193000    2.54494000      0.588357    0.08522600    0.49383300
Se    1.08362000   19.19861000    9.94848000      0.834034   -0.53256600    0.18407900
Se    7.32413000    1.73752000    1.58158000     -0.663694   -0.10477000    0.07598300
Se    7.48283000    1.39435000   10.29997000     -0.148962    0.75060500    0.17367300
Se    7.09763000    5.11349000    0.82426000      1.339240    0.12517700    0.07270000
Se   10.17353000    7.09985000   11.74782000      0.341090   -0.38626100    1.20515100
Se    8.16295000   11.05396000    0.71599000     -0.083098    0.73246200    0.72198600
Se    5.92810000   13.77109000   12.65238000     -0.056447    0.56858100    1.06331800
Se    4.69289000   20.31043000    0.83348000     -0.152222   -0.77367700    1.03207700
Se    9.26102000   18.58661000   11.80681000     -0.474434    0.40912100    0.49072100
Se   14.43499000    2.92837000    0.39367000      0.072153    0.34369400   -0.20166000
Se   12.67605000    1.01847000   10.32232000      0.568272    0.15339700   -0.63152900
Se   10.42199000    7.27255000   19.13599000     -0.691982   -1.18017600   -0.30799000
Se    9.68440000    9.08249000    8.33943000     -0.407719    1.01406600    1.56594500
Se   11.92866000   12.23173000    0.62561000     -0.694667    0.34189900   -0.20823300
Se   13.44818000   11.20012000   10.34557000     -0.642147    0.77256400   -0.00239900
Se   15.29877000   15.23954000    1.82409000      0.503477    0.18499800   -0.03921000
Se   11.62411000   17.43716000    9.50630000      0.391875   -0.34592100   -0.36463100
Se   16.65858000    3.92447000    2.91722000     -0.645425   -1.39756700   -1.43030600
Se   16.13009000    2.98433000   10.87775000      0.029797   -0.08744200    0.74753800
Se   16.23783000    7.33802000   17.87994000      0.133335   -0.11819800    0.20429900
Se   20.34685000    6.91639000   11.52774000      0.184698   -0.57305100   -0.01601900
Se   18.70347000   10.30487000    0.28676000      0.993024    0.58218800   -0.08640500
Se   16.41413000   15.28448000    7.04152000      0.602561   -0.01067600    0.15056400
Se   19.43203000   17.33832000    0.46224000      0.975633   -0.69678900    1.03361500
Se   17.76532000   19.49553000   11.14939000      0.863278    0.20824700    0.11062300
Se    4.09542000    3.77082000    1.98515000      0.102178    0.09807900   -0.17240700
Se    3.79718000    6.45916000   12.38275000      0.327584    0.36144200   -0.53897100
Se    6.23525000   10.35750000    2.28115000      0.044317   -0.48727800    0.04787900
Se    5.16751000   12.82798000   10.72927000     -0.636149   -0.21009900   -1.00422000
Se    4.20387000   15.70985000    4.37951000      0.644138   -0.12229200   -0.36249500
Se    3.54053000   16.20914000   11.65743000     -0.959555    1.25374500    0.10709100
Se    3.02454000    0.67578000    1.35285000      0.813775    0.81224000    0.65594200
Se    7.03669000   21.06909000   10.11272000      0.180974    0.91807600   -0.52464300
Se   10.82343000    6.56205000    3.05839000      0.248372   -0.85911200    0.51510100
Se    7.37236000    3.44071000    8.90414000     -0.538990   -0.67073800    1.15162900
Se   10.61421000    9.46406000   17.48153000      0.564804    1.04820600    0.63195200
Se    7.32029000   10.83122000    9.19354000      0.185780   -0.41002600   -0.03233700
Se   10.61166000   17.27997000    0.11893000     -0.437485    0.30140000    0.29151400
Se   11.53554000   14.44363000   11.43218000     -0.458678    0.15952600    0.45261200
Se   13.58026000   22.57974000    0.99473000     -0.284201   -0.77731400   -0.08756000
Se   11.37452000   21.79381000   11.50895000     -0.088603   -0.01392400    0.34804200
Se   13.44359000    4.93722000    1.61920000      1.424049   -0.40962600   -0.18922900
Se   17.47329000    7.25405000   11.06396000      0.438986   -0.42836200   -0.69531000
Se   15.23533000    9.55577000    1.16218000      1.855405    0.71291700    1.12948000
Se   15.72651000   10.34131000   12.38446000     -0.591516   -0.39934900    0.01401400
Se   18.60300000   13.92737000    3.87964000     -0.442591   -0.32267300   -0.62614700
Se   14.43657000   13.40989000   10.16255000      0.302861   -0.47914600   -0.30504100
Se   16.92398000   22.82235000    1.85113000      1.044375   -0.16794400   -0.75313300
Se   14.64326000   20.14609000    9.75299000     -0.982409   -0.11674000   -0.47525200
Se   20.67704000    1.22050000    0.94469000      0.732948    0.28038300    0.57088700
Se   21.65928000    2.89291000   10.10077000      0.544845    0.95448700   -1.19727800
Se   19.78008000    6.42069000    0.74847000     -0.340745    0.59439100   -0.05985800
Se   21.40237000   10.21981000   10.44838000      0.427365   -0.32484800    0.23724300
Se   20.69257000   13.64823000    0.74854000     -1.030644   -1.58471800   -0.58075800
Se   22.54459000   15.95406000   12.19376000      1.388098   -0.29121700    0.74832600
Se    0.23563000   21.87119000    2.02576000     -1.244660   -0.27777800    0.81640400
Se   19.93741000   20.65191000   15.24882000     -0.276772    0.27486800   -0.27570900
Se    3.99138000    5.19987000    8.48293000     -0.389521    0.44985600   -0.64540900
Se    1.14470000    6.69984000   16.51177000      0.022555   -0.54649700   -0.93233300
Se    4.03964000   10.77725000    8.40407000     -0.747158    0.43259700    0.26484500
Se    3.74886000    9.58407000   17.99203000     -0.025569    0.01649500    0.16061900
Se    4.63691000   18.59972000    7.27096000     -0.674616    0.84200300    0.38700200
Se    0.17277000   17.63684000   16.93378000      0.233920    0.12776300   -0.26879500
Se    3.17585000   21.90315000   11.96786000     -0.340863   -0.25560300   -0.33385700
Se    6.11738000   21.26180000   17.45271000      0.719216    0.16923900    0.00936500
Se    7.20602000    3.58108000    5.76586000     -0.199929    0.00983300   -0.06888600
Se    6.08854000    3.62933000   17.24504000      0.034338    0.53440800    0.12285100
Se    6.34444000   10.64114000    6.08588000      0.364347    0.17563300   -0.32738200
Se    4.83328000    7.15735000   16.57977000      0.571386   -0.51116500   -0.09510600
Se    6.22597000   16.65913000    9.80613000      0.737286    0.06881500    0.50038800
Se    6.98594000   17.26416000   18.61806000     -0.261716   -0.28957900   -0.13790700
Se    8.32079000   18.77795000    7.45819000      1.070462   -0.91127900    0.88914300
Se    6.51840000   22.58855000    0.62488000     -0.025305    0.78733700   -0.21499000
Se   14.10830000    3.08637000    9.69732000     -1.204727   -0.28647200   -0.54880800
Se   12.91679000    4.73661000   17.34860000     -0.258070   -0.02806500   -0.24959600
Se   13.05801000    7.88296000   10.24664000      0.165959    0.31205600    0.14422400
Se   13.52170000   11.33659000   15.62799000     -0.533740    1.44705300    1.19348200
Se   13.23054000   14.96496000    6.58596000     -0.263881   -0.63799800    0.00770900
Se   13.85565000   15.05261000   16.67648000     -0.667416    1.24225300    1.28308800
Se   13.01822000   21.60121000    5.51963000     -1.498842    0.06699400    1.07203300
Se   16.55536000   22.35529000   17.43087000     -0.025373   -1.05147600   -0.09764300
Se   18.30425000    3.35534000    9.04775000     -0.038109   -0.03377500    0.47147600
Se   20.14293000    3.75966000   17.29773000      0.166513   -0.29005300    0.88727800
Se   18.65229000    8.63116000    8.31008000      0.149866    0.68832500   -0.78696500
Se   16.89184000   10.31547000   16.07471000      0.040978    0.36442100    0.32155500
Se   15.24304000   16.32257000   10.45662000      0.566274    0.11864100    0.86015300
Se   18.24957000   15.03261000   15.88732000      0.159518    0.28363300    0.33804100
Se   18.07518000   19.15087000    8.83218000     -0.427394    0.09665800   -0.04994800
Se   20.20305000   19.57709000    2.06661000     -1.031763    0.34779900    0.62647900
Se    4.27674000   23.00346000    8.10697000     -0.427604    0.28350600    1.55727300
Se    1.06621000    4.19331000   16.59110000      0.678850    0.48650900   -0.00737200
Se    7.14223000    7.20475000   10.76922000     -0.306505   -0.11166900   -0.73847200
Se    3.31845000    6.14438000   18.69906000      0.225074    0.05805400    0.19014000
Se    3.92528000   15.77595000    6.95140000      0.565480   -0.77529700    0.34958400
Se    5.47236000   13.98788000   18.92765000     -0.193742   -0.36802400   -0.49385700
Se    3.02669000   20.49345000    9.57712000      0.742123    0.44769200    0.17767400
Se    0.42994000   16.86329000    0.42865000     -0.536082    0.36102700    0.17501400
Se    9.98824000   22.34640000    8.27074000     -0.295112   -0.16546900   -0.01483500
Se    9.84796000    3.47755000    0.04809000      0.277201   -0.22200200    0.25727600
Se   11.45843000    4.94958000    9.34273000      0.588283   -0.32333300   -0.05497700
Se    6.64358000    8.53540000   18.62433000      0.258116   -0.11289500    0.01925500
Se   10.79155000   14.09248000    8.47095000      0.038833   -0.05504200   -0.11409200
Se    8.45541000   12.93072000   18.03118000      0.752149   -0.00701400   -0.14352800
Se   11.63213000   20.65981000    7.81281000      0.082737    0.22611900    0.60759700
Se   11.54815000   14.44515000   16.85736000     -0.615761    0.21554600    0.13973000
Se   16.61355000    0.26253000    8.34388000     -0.510718   -0.26260500    0.58146500
Se   16.38235000    2.91473000   18.09789000     -1.024587    0.33869200    0.64699100
Se   15.65899000    5.57958000    9.33429000      1.000746    0.08268900    0.06162600
Se   13.84913000    8.95504000   18.86908000     -0.898631   -0.87226800   -2.03067500
Se   17.04501000   12.43469000    9.66685000     -0.447775   -0.02435200   -0.42560300
Se   16.80936000   13.71705000   18.83850000      0.158805   -0.00240600   -0.10857900
Se   14.81692000   18.24913000    7.00587000     -0.548528    0.23543200   -0.20004300
Se   16.71434000   18.27715000   19.30248000      2.604506    0.88862500    0.54722900
Se   22.22966000   22.23614000    9.13227000     -0.074925   -0.31996900   -0.03923700
Se   22.90906000    0.70639000   15.04609000     -0.448115   -1.28562000    0.86938700
Se   20.56378000    6.26045000    8.03751000     -0.272148   -0.37374300   -0.08870400
Se   21.26011000    7.72783000   18.28329000      0.210531   -0.12230900    1.03493000
Se   22.08466000    9.70918000    6.77422000      0.177350   -0.49752200   -0.07172200
Se   21.09895000   10.87171000   17.68617000      0.553251    0.52266200   -0.75517200
Se   19.70897000   16.57477000    7.43389000      1.038723    0.12058300    0.54392000
Se   20.01438000   16.04418000   17.14395000     -0.223815   -0.08775100   -0.68430600
Se    3.16758000    2.53077000   10.43411000      0.812375   -0.08792300    0.72106400
Se    3.15129000    0.94311000   15.17439000     -0.500783   -0.41171500   -0.42185400
Se    0.67475000    8.06531000    7.80841000     -0.448269    0.39008900   -0.19609200
Se    1.65689000    9.88668000   17.02885000     -0.679130   -0.49035100   -0.29279800
Se    0.81482000   16.26421000    6.62117000      0.507291    1.24130900   -0.40259200
Se    1.83995000   13.13064000   16.67939000     -0.710065    0.27836200    0.73971000
Se    0.29137000   18.73823000    6.99284000     -0.015923   -0.71031700   -0.58276600
Se    2.27445000   20.53402000   15.94016000      0.049455    0.08095200    0.74041000
Se    7.93000000    0.34298000    6.13298000     -0.138495    0.09547400    0.27486400
Se   10.99291000    0.70242000   17.75845000     -0.094855    0.08346500   -0.14719200
Se    7.77311000    7.17717000    6.40806000     -0.045371    0.44210400   -0.83531200
Se    6.99238000    6.94049000   15.11199000     -0.235339    0.63485800    0.13044400
Se    7.42864000   14.10494000    5.86077000      0.454430    1.21383100    1.05600400
Se    9.18515000   16.98411000   14.39664000      0.101624   -0.29833600   -0.09502900
Se    5.07403000   19.71768000    4.78423000      0.218664   -0.89257900    0.43980300
Se    8.28550000   14.81365000   14.85274000     -0.375429    0.16493700    0.42262700
Se   14.67152000   21.81177000    4.10632000      1.956967    0.43859000   -1.46962400
Se   14.25325000    1.51992000   16.82183000      0.537205   -0.52657900   -0.65442800
Se   12.82880000    7.28868000    6.62278000      0.035987    0.10149700   -0.59956700
Se   11.22500000    7.07654000   15.71799000     -0.122100   -0.27404200   -1.11874500
Se   12.85371000   11.86821000    4.99173000     -0.070058   -0.25266100    0.64544400
Se   14.63209000   14.27445000   13.30295000      0.172184   -0.07111500    1.05777700
Se   10.02413000   16.42707000    5.61073000     -0.435069    0.66754000    0.03282600
Se   14.07380000   19.76898000   17.63228000     -0.663440    0.46836400    0.41023800
Se   20.57673000    1.22329000    5.26596000     -1.302184    0.51801100   -0.45745000
Se   18.52483000    0.60442000   17.67977000      0.220919   -0.07263700    0.26970800
Se   17.41237000    4.58477000    5.92194000      1.428909   -0.76624600    0.35369400
Se   17.96949000    6.79884000   16.34974000      0.654559    0.41763100   -0.27972400
Se   20.18376000   10.68935000    4.59818000     -0.543224   -0.20925300    0.16943700
Se   16.87529000   13.25905000   12.78521000      0.002560   -0.24676800    0.03178100
Se   16.93879000   18.87935000    5.68760000      0.175360   -0.12392000    0.17090400
Se   17.54156000   22.66103000   13.74114000     -0.197380   -0.71573600    0.43822900
Se    3.22681000    7.06007000    7.15015000      0.480894    0.36407600    1.00375400
Se    3.01589000    4.63505000   13.55968000     -0.348569   -0.79859000   -0.23182100
Se    3.17434000    9.32029000    4.06257000     -0.043163    1.02897700    0.03401500
Se    5.33901000   11.98690000   15.47379000      0.173000   -0.04182500    0.41152300
Se    5.38969000   13.40940000    6.67613000     -0.942180    0.04832600    0.39599400
Se    4.04034000   17.94783000   17.97676000     -0.331161    0.00463800    0.15987000
Se    1.69315000   21.63394000    5.78507000      1.475815   -0.12092400    0.55720900
Se    5.07911000   22.38822000   14.20272000      0.004972    1.18237800    0.42654100
Se   10.71066000    2.08143000    6.51056000      0.294605    0.99820000   -0.13023300
Se    9.39883000    3.46459000   15.74565000     -0.985864    0.63003900    0.48067600
Se   10.63499000   10.26678000    6.55532000      0.602317    0.10512300   -0.70703600
Se    9.40343000   11.38804000   14.78373000      0.156394   -0.14367700   -0.04558400
Se    8.52371000   15.11295000    9.26596000     -0.891597   -1.18041200    0.47046300
Se   12.34245000   18.18993000   16.14910000      0.967363   -0.69388200    1.61429000
Se   10.05634000   20.49137000    4.01957000     -0.029686    0.01716900   -0.26629200
Se    8.43757000   20.82093000   18.56885000     -0.345912    0.19052800   -1.31208100
Se   13.89761000    4.47043000    5.30292000      0.890643   -0.71184400    0.40611400
Se   18.71333000    3.08431000   14.99641000     -0.682589   -0.29068500    0.26079600
Se   15.58705000    9.49082000    6.39618000     -0.578466    0.23164400    0.65212800
Se   18.00354000    9.85247000   12.56941000      0.437956    0.08823300    0.47901300
Se   17.85730000   12.03608000    5.73444000     -0.393512   -0.06517700   -0.15504800
Se   16.88647000   18.47153000   16.14298000      0.013627    0.42245100   -0.51387100
Se   15.94823000    0.71015000    4.81636000     -0.308600    0.15382400   -0.04343000
Se   18.94149000    3.44168000   12.72027000     -0.556859    0.42325600   -0.72727900
Se    0.13970000    3.86633000    7.61618000      0.193279    0.46259100   -0.11061400
Se   22.71618000    3.50337000   14.45611000      0.156175   -0.61089800   -0.14673300
Se   19.66064000   12.52122000    8.38360000     -0.623137    0.45730500    0.89564900
Se   22.74491000   11.74200000   15.87379000     -1.312798   -0.37599600    0.26059000
Se   21.61038000   13.35813000    7.07974000     -0.083939    0.07748300    0.31981300
Se   20.60562000   17.78157000   14.00242000      0.598589    0.55978000    0.75914200
Se   19.34487000   20.93186000    7.69019000      0.053571    0.00400900    0.04011100
Se   22.18838000   21.12947000   18.13278000     -0.075997    0.13352100    0.10029600
Se    3.53394000    2.65930000    5.38688000     -0.183774    0.38717800    0.15683100
Se    6.22438000    1.15327000   16.71908000      1.294693   -0.88311800    1.69073500
Se   22.77512000    4.26293000    0.29000000      0.122878   -0.18517200    0.30616900
Se    4.46249000    9.48751000   11.36942000     -0.339926    0.15285300   -0.29371900
Se    0.89047000   12.46044000    2.79241000      0.816237   -0.95408700   -0.10060400
Se    3.87996000   15.58679000   15.61671000     -0.508106   -0.36431200   -0.99097200
Se    4.38522000   15.99592000    1.81507000      0.467827    0.47958500    0.06409700
Se    5.60805000   18.94304000   12.58170000      0.133574   -0.95663600   -0.06845400
Se   10.75827000    0.92293000    2.65841000      0.538002   -0.45624600   -0.01087900
Se   11.55809000    1.39901000   14.11749000     -0.087584    1.33283700   -0.60879400
Se    9.65594000    8.86249000    2.92880000      1.156502    0.77737100    0.24490400
Se    7.82306000    9.04113000   16.08460000     -0.364916   -0.57195500   -0.03891000
Se    9.51878000   12.42677000    4.16233000     -0.128060    0.14483700   -0.86864400
Se    9.62175000   12.30750000   11.53560000     -0.293918    0.66880800    1.21487300
Se    8.77763000   20.69837000    1.98438000      0.080729   -0.43215100    0.48598600
Se   11.55496000   19.13512000   14.28539000     -0.445012    0.83724600   -1.83895000
Se   18.13939000    1.53165000    6.86573000      0.818313   -0.53901600   -0.50262400
Se   14.56547000    2.03016000   13.35214000      0.797394   -0.03551600   -0.24278700
Se   15.93320000    7.16148000    4.03016000     -0.212139    0.01524100   -0.60255500
Se   15.16570000    5.17008000   15.16558000     -1.710248   -2.47242600    1.24140400
Se   14.75120000   12.55213000    2.54510000      0.743089    0.18439300   -0.06704900
Se   17.75258000   17.05110000   13.91650000     -0.968523   -0.10891800    0.59931800
Se   15.56088000   15.61894000    4.15236000     -0.369022    0.41009100    0.56152300
Se   16.10748000   20.26990000   14.32865000      0.531474    0.32002700   -0.05304900
Se   22.70734000   22.87394000    5.67094000     -0.592317    0.27535400   -0.09551600
Se   20.64650000    0.24116000   12.20952000      0.273674   -0.90187300    1.18149400
Se   21.08714000    4.83515000    4.46505000      0.248932   -0.05259100    0.49207100
Se   20.56830000    8.76419000   13.93684000     -0.109343    0.40678300    0.56177800
Se    0.81330000   13.15082000    5.95962000      1.560597    0.23728500    0.03442600
Se   21.58554000   14.12470000   16.05457000     -0.102263   -0.26192300    0.44933800
Se   22.05815000   19.08532000    4.80746000     -0.596413   -0.60164100    0.63689700
Se   21.64081000   19.26851000   10.22264000     -1.483085    0.34241800   -0.15919400
Se    0.29102000    5.05328000    5.56577000     -0.245870   -0.12200000   -0.60477900
Se   21.79476000    5.54559000   14.28933000     -0.884544    1.53561600    0.18460600
Se   21.67016000    9.69850000    3.03726000      0.521052    2.21168600   -1.04393100
Se    1.07770000   11.41667000   12.49844000      0.110130   -0.96394600    0.39727600
Se    1.13837000   14.21644000    1.22895000      0.039515    0.07553700   -0.15115300
Se    1.27191000   20.86739000   12.97097000     -0.095950    0.06446200   -0.72902300
Se    4.36405000    0.15551000    3.53928000     -0.476211    0.48647900    0.74679600
Se    3.69486000   19.22593000   14.09822000     -0.359870    0.04274200    0.69858700
Se    9.67581000    6.76634000    7.88878000      0.003469   -1.06266100   -0.08969600
Se    6.66130000    4.78636000   13.02866000     -0.048725   -1.23614500    0.85974000
Se    5.91849000    6.75833000    3.88042000      0.278312   -1.10227400    0.21130100
Se    7.55889000   10.80422000   12.61763000      0.502495   -0.53621000   -0.05366800
Se    7.70372000   17.39179000    3.26067000      0.040913    0.05087300    0.50855400
Se   11.95136000   14.48817000   13.93645000     -0.230942    0.10909900   -1.07135300
Se    6.91869000   21.15221000    6.86441000      0.656993   -0.44212400   -0.03261200
Se    8.00977000   22.07969000   14.06674000     -0.216342   -0.58543200   -0.49804000
Se   12.76382000    2.21591000    3.50680000     -0.049453   -0.04885900    0.16310900
Se   10.23009000    2.65651000   12.26969000     -0.457683   -0.15397600    0.51184600
Se   13.99552000   10.38971000    3.36272000     -0.625961    0.01047300    0.50111400
Se   12.41877000    9.55294000   13.03674000      0.007967   -0.97751400   -0.04802600
Se   12.19779000   15.13573000    3.03799000     -0.228913    0.23469400   -0.66595500
Se   14.69287000   18.32042000   12.17671000      0.067246   -0.58742900    0.76285600
Se   13.66723000   18.75464000    2.26785000     -0.012754    0.35313000   -0.97763000
Se   13.54452000   22.32515000   15.31360000     -0.196926    0.20870600    0.27590300
Se   17.14490000    5.47228000    0.96072000     -0.099072   -0.22599100    0.02497600
Se   16.45080000    6.16375000   13.69744000      2.006618    1.88508100   -2.10133400
Se   17.67938000    8.80172000    3.97318000      0.070699    0.23968600   -0.10099100
Se   20.38411000   12.91540000   12.85126000      0.925498   -0.29077100   -0.43822300
Se   22.11423000   15.60797000    4.03089000     -0.516413    0.29533800   -0.58901500
Se   19.27868000   15.87585000   11.07567000     -0.479322   -0.18355600   -0.51291800
Se   19.56654000   21.54500000    3.69557000      0.154208   -0.45772200    0.06949200
Se   15.97792000    0.46994000   11.04477000      0.503083   -0.18925200    0.01927300
