384
23.00800000 23.00800000 19.32000000
Ge    5.41953000    5.23559000   10.59521000      0.334203    0.17733000    0.72344300
Ge    5.07574000    6.17310000    1.36592000     -0.860740   -0.36760900   -0.33906000
Ge    1.60077000   11.87200000    8.08261000      0.572012   -0.82106600   -0.09568900
Ge    6.06230000   11.39119000   17.98969000      0.159145    0.24331800    0.12250100
Ge    4.25980000   15.00147000    9.58812000      0.100792   -0.52391700   -0.24440400
Ge    8.28571000   18.09198000    1.11254000      0.561779    0.40422600   -1.13743000
Ge    9.59695000   19.99631000    9.64825000     -0.630155   -0.05315800   -0.43908900
Ge    4.93750000    2.17993000    0.02358000     -0.028346   -0.19015100    0.54075700
Ge    8.50703000    5.06209000   11.57625000      1.223222    0.23358000   -0.83362300
Ge   11.19063000    5.10238000    1.07639000     -0.319983    1.36889900   -0.48803000
Ge   10.69237000   11.88591000    9.42210000      0.078481   -1.01544000   -0.48043100
Ge   10.98742000   12.06738000   17.50866000     -0.826510   -0.77503300    0.81433200
Ge    9.67345000   16.64962000    8.00015000      0.968698    2.43746600   -0.82191700
Ge   11.74793000   14.94158000    0.40381000      0.390605   -0.36504400    0.00000300
Ge   10.42915000    1.89905000    9.09105000      0.411181   -0.39638600    0.77195100
Ge   15.64021000   21.01072000    0.53715000     -0.181053    1.16320600   -0.40971700
Ge   19.07004000    5.65630000    9.87894000     -0.507615    0.02535800    0.72972300
Ge   19.28791000    9.41597000   16.32262000      0.026729   -0.53179400   -0.12279200
Ge   21.44025000   14.47541000   10.53151000     -0.623927   -1.02048100    0.43393300
Ge   16.80174000   11.25998000   18.53301000     -0.948781   -0.15728100   -0.00873000
Ge   13.87149000   16.34744000    8.65054000     -0.797352    0.78550900   -0.97421900
Ge   18.04326000   14.67847000    1.42880000      0.049533    0.28068700    0.29260300
Ge   18.91822000    0.64803000    9.44063000     -0.184510    0.31482700   -0.61268700
Ge   17.90764000    2.43210000    0.79470000     -0.342386   -0.57352400    0.38759900
Ge   22.42209000    5.66838000    9.74675000     -0.256513   -0.32707100   -0.38238800
Ge   20.37842000    3.85098000    0.50983000     -0.269693    0.39070400    0.00717500
Ge    0.83092000   10.00806000    9.83030000     -0.173932    0.03911500    0.13938500
Ge    0.86379000   11.96244000   18.97639000      0.811301   -0.33611800   -0.33581000
Ge   22.17536000   15.61556000    8.16945000     -0.916473   -0.43120900    0.04603800
Ge    2.03704000   16.02056000   17.69216000      0.361822    0.13873600   -0.42653700
Ge   20.01049000   21.50952000   10.60486000      0.416074   -0.43278400   -0.90447900
Ge    1.77505000   21.87525000    0.19510000      0.389208   -0.79719600   -1.38451300
Ge    6.02084000    8.94152000    7.86226000     -0.066129   -0.03760800    1.08183700
Ge    0.52192000    6.51952000   18.85612000      0.021577    0.20333200    1.30365000
Ge    0.70795000    8.26858000    5.00890000     -0.411504    0.31396400    0.78316700
Ge    4.17175000   13.41459000   16.93134000      1.007931    1.17713000    0.22923000
Ge    4.16337000   18.49130000    2.66562000     -0.131902   -0.02020700   -0.25347300
Ge    1.91199000   19.38988000   18.15136000     -0.170571   -0.38671100   -0.06738400
Ge    5.23216000   19.33646000   10.14194000     -0.072596   -0.19835500   -1.13972500
Ge    3.33556000   22.94709000   17.52466000      0.102335    0.06318300   -0.39162500
Ge    9.31169000    4.11433000    7.48917000      0.250121   -0.33635300   -0.69724800
Ge    8.30055000    5.05994000   17.70326000      0.021417    0.03593700    0.00828600
Ge    6.82915000   12.54733000    4.06742000      0.148663   -0.14291900   -0.65872800
Ge    8.15767000    7.71977000    1.28277000     -0.665767   -0.66710400   -0.97414500
Ge    6.34812000   16.80688000    7.30565000      0.035571    0.35861800   -0.44761300
Ge    8.57134000   15.53409000   17.31847000      0.431931   -0.09592800    0.19372400
Ge   10.47287000   22.89141000    4.96451000     -0.182346   -0.62736300    0.28704400
Ge   11.27585000   22.07439000   14.08888000      0.221518   -1.10887200    0.01736200
Ge   13.53028000    6.14879000    8.61056000     -1.869381    0.19460100    0.58773700
Ge   14.02346000    6.86324000   16.39720000     -0.197220    0.29804900    0.62876800
Ge   13.19132000    9.56347000    7.56125000      0.222709    0.09742300   -0.52321000
Ge   15.15780000   13.24354000   15.91807000      0.749015   -0.27997900   -1.15778200
Ge   13.32437000   17.15013000    5.10752000      0.609154   -0.37113900    0.00721800
Ge   14.56443000   17.75565000   19.14303000     -2.803763   -0.80632000    0.42467200
Ge   13.87603000   22.06850000    8.35386000     -0.587135    0.32893700    0.34671400
Ge   16.49708000    1.46514000   14.92380000     -0.494249    0.43058200    0.19421300
Ge   19.99180000    3.79312000    6.96497000     -0.124779    0.82133900   -0.61572300
Ge   20.44715000    6.03504000   16.72856000     -0.251431   -0.13787700   -1.00709700
Ge   17.14557000   10.56154000    8.04420000     -0.046047   -0.24077100   -0.70290400
Ge   19.75413000   13.14126000   17.53294000      0.464374    0.40061100   -0.08550800
Ge   18.18410000   16.69411000    5.46618000     -0.579041   -0.62341400   -0.43861400
Ge   18.59752000   20.38904000   17.28297000     -0.199898    0.17268500   -0.02927400
Ge   21.76268000    1.45179000    7.43119000      0.377582   -0.41588700    0.22828500
Ge   19.65804000   22.09145000    0.44830000     -0.883708   -0.62328600   -0.07727300
Ge    4.87631000    3.13521000    7.36056000      0.735260   -0.43875000   -0.67911600
Ge    3.85800000    4.92485000   16.08907000     -0.186093   -0.07088600    0.65083900
Ge    3.26735000    6.90177000    4.73091000     -0.044368   -0.85235700   -0.67315000
Ge    2.59722000    9.06502000   13.04302000      1.262101    1.93523700    1.00131100
Ge    1.67411000   15.45651000    3.52044000      0.200335   -0.01109000   -0.38713900
Ge    0.46704000   18.62813000   14.67445000     -0.466262    0.23550800   -0.18112200
Ge    2.27777000    1.54026000    8.38225000     -0.504939    0.00097800   -0.48626100
Ge    5.10982000   17.74381000   15.58490000      0.733656    0.02858500    0.85043900
Ge    9.28652000    2.88151000    2.61190000     -0.255701    0.70536600    0.13078800
Ge    9.34862000    0.93951000   15.56446000      0.434978    0.67941100    0.64459100
Ge    8.80629000    9.37165000    5.08110000     -1.213861   -0.24386500    1.22940200
Ge    9.65215000    8.54415000   14.12142000      0.433914    0.18466000   -0.03767400
Ge   11.11673000   14.30300000    5.09825000      0.164273   -0.12720800    0.54310800
Ge   11.65829000   11.85287000   13.89061000     -0.341139    0.18826300   -0.13154600
Ge    5.67094000   21.16076000    2.93862000      0.557586    0.25230100   -1.04042000
Ge    9.94441000   19.08939000   16.24058000     -0.468820   -0.52803500    0.19527400
Ge   13.86258000    1.86566000    5.90465000     -0.294353   -0.07377000   -0.03950900
Ge   11.56683000    4.37264000   15.03685000      0.503994    0.36540500    0.36329600
Ge   15.72374000    6.16697000    6.46671000     -0.487373    1.12084000    0.36051200
Ge   14.61730000    9.51268000   14.63313000      0.282960   -1.33737700   -0.85911800
Ge   15.32444000   13.18240000    5.46660000     -0.249796    0.40148100   -0.28935900
Ge   15.08044000   16.99442000   14.50534000      0.438728   -0.28602200   -0.58549200
Ge   11.42170000   17.66729000    2.46807000     -0.287342   -0.23602600    0.71664400
Ge   10.69285000   21.62244000   16.81111000      0.258019   -0.31133000   -0.06990100
Ge   18.07430000    5.69763000    3.62426000      0.719130    0.72037900    0.87119500
Ge   21.17527000    2.58028000   12.37097000      0.169633    0.03748100    1.19715300
Ge   19.83183000    8.46605000    5.97761000      0.224723   -0.15878000    0.38878000
Ge   18.63636000   11.63506000   14.29373000     -0.100305   -0.31101400   -0.34916100
Ge   21.55412000   15.56279000    1.56027000      0.305980    2.10020500   -0.26567100
Ge   18.69924000   14.53243000   13.40305000      0.630478    1.24440000   -0.33412400
Ge   19.56336000   19.78046000    5.44912000     -0.351877    0.37942900   -0.18157200
Ge   22.43977000   21.17877000   15.67768000     -0.289732   -0.31735300   -0.65635500
Ge    5.59541000    2.59009000    3.76842000     -0.396487    0.07437900    0.21904900
Ge    5.38177000    2.12962000   14.75956000     -0.654548   -0.17939200   -1.14981100
Ge    5.50991000    8.99731000    4.43568000      0.042533    1.45110500   -1.31023400
Ge    6.21974000    8.46200000   12.70742000      0.007545    0.39495900    0.31754400
Ge    6.79480000   15.18487000    2.70671000     -0.717814   -0.20493600   -0.05330300
Ge    3.29451000   14.16354000   12.77142000      0.462943   -1.31445300    1.06290100
Ge    5.49644000   22.80066000    6.14444000     -1.475134    0.98782500   -1.83119100
Ge    7.49673000   20.52025000   12.36753000      0.802811   -1.02616900    0.36924100
Ge   11.64139000    4.32531000    4.50343000     -0.901589   -0.46120400    0.17942600
Ge    7.50622000    2.25440000   13.08618000      0.872008    0.27899300   -0.92494400
Ge   11.68838000    9.36540000    0.56751000     -1.071272    0.80436900    0.50173400
Ge   12.33242000    6.79521000   13.19556000     -0.823626    0.75514600    0.34601400
Ge    9.47556000   13.37024000    1.76318000      0.062039   -0.76777000   -0.44080800
Ge    8.95555000   15.03101000   11.93170000      0.433930   -0.18188200   -0.02038400
Ge   12.09254000   20.51777000    0.79014000      1.088800    0.23801600   -0.10384600
Ge   12.26902000   19.43467000   11.46901000      0.134981   -0.55980500   -0.50256800
Ge   21.63659000    0.52513000   17.31000000      0.390244    0.52563500    0.37002800
Ge   14.54869000    5.65137000   12.26206000      0.076728   -0.49611000   -0.26245700
Ge   17.69634000    8.34702000    1.34027000     -0.355028   -0.73078800   -0.14991700
Ge   15.08262000    9.32379000    9.82094000      0.636434    0.16376600    0.56681400
Ge   17.28746000   11.58812000    3.11955000      0.187329    0.46153300    0.43035400
Ge   18.44650000   14.78849000    8.63850000     -0.306098   -0.36187900   -0.18743000
Ge   17.63943000   17.76068000    2.47339000      0.634785    0.13010400   -0.83764600
Ge   15.67395000   20.88338000   11.72294000      0.996736    0.17634600    0.93519200
Ge    0.28617000    1.50065000    1.65195000     -0.074924    0.29616800    0.99922100
Ge    0.25141000   22.56289000   11.45776000     -0.235448    1.01981200    0.19658400
Ge   21.75825000    7.45728000    3.35215000     -0.442272   -2.43135800    0.41162500
Ge   22.47699000    9.52945000   12.60011000     -0.212377    0.56605800   -0.55571300
Ge   21.87476000   13.09301000    4.28837000     -0.714756   -0.04999000   -0.36517500
Ge    1.16790000   16.35936000   10.33086000      0.379759    0.49609600   -0.05542000
Ge    0.86990000   20.35560000    3.90741000      1.196925    0.13141300   -0.43468900
Ge   20.95140000   17.61529000   11.65848000     -1.027147    0.30831600    1.00335800
Se    0.93810000    1.47054000   18.62598000      0.210554   -0.68505400   -1.36612800
Se    1.34602000    3.28870000   11.71314000      0.341240    0.21686000    0.08540400
Se    0.80721000    7.04149000    2.22744000      0.136745    0.00695700   -0.48090800
Se    0.99760000    7.59173000   12.35323000     -1.923821   -0.79690900   -0.99010300
Se    3.50068000   11.05253000    0.46450000     -0.446401    0.35715300   -0.09317400
Se    1.52965000   13.91138000    9.38630000      0.070808    0.16046000    0.49575200
Se    1.63202000   18.27561000    2.47698000      0.084008    0.13149200    0.40589400
Se    1.05292000   19.22065000    9.98108000      1.045226   -0.32799200    0.06995700
Se    7.32901000    1.69886000    1.53347000     -0.595296    0.43800700    0.18781300
Se    7.46464000    1.42147000   10.29898000     -0.184283    0.65329900    0.22535900
Se    7.11896000    5.06412000    0.85279000      0.906418    0.43276800    0.11798800
Se   10.23305000    7.11083000   11.76741000      0.213960   -0.33647300    1.17200200
Se    8.11482000   11.03775000    0.70785000     -0.040098    0.88877200    0.74640200
Se    5.90005000   13.78881000   12.66179000      0.106506    0.81263900    1.40841300
Se    4.65500000   20.32193000    0.82770000     -0.243002   -0.86125100    0.88748600
Se    9.22616000   18.58817000   11.81704000     -0.454361    0.40309900    0.56743700
Se   14.42649000    2.93862000    0.40585000      0.041357    0.51361800   -0.12853800
Se   12.67164000    1.03828000   10.31161000      0.660509    0.10385900   -0.61225000
Se   10.44436000    7.31731000   19.09921000     -0.809847   -1.24063100   -0.01587000
Se    9.71550000    9.04108000    8.33525000     -0.546773    1.35246100    2.06028700
Se   11.92381000   12.23143000    0.62071000     -0.662453    0.40445800   -0.16380600
Se   13.48388000   11.25441000   10.33143000     -0.700167    0.10199100   -0.02382000
Se   15.30931000   15.22882000    1.80329000      0.585221    0.15967900   -0.16035700
Se   11.62730000   17.45926000    9.44780000      0.368414   -0.37770100   -0.30997800
Se   16.64676000    3.96357000    2.91937000     -0.478309   -1.26041700   -1.32851700
Se   16.10520000    2.98566000   10.85712000      0.339761   -0.19978100    1.06770100
Se   16.27915000    7.38701000   17.88396000      0.143359   -0.22263300    0.09462300
Se   20.29836000    6.93946000   11.52293000      0.044358   -0.41751500    0.09782300
Se   18.70408000   10.35517000    0.28231000      1.308412    0.34964700    0.14544300
Se   16.43386000   15.29194000    7.05002000      0.750568   -0.04219200    0.03662500
Se   19.47825000   17.29717000    0.46994000      0.765984   -0.62133300    1.26947100
Se   17.81397000   19.44996000   11.15137000      0.492792    0.40862600    0.05102400
Se    4.08542000    3.79254000    1.93849000      0.077514    0.15319100    0.02572100
Se    3.79970000    6.41740000   12.39762000      0.602427    1.27836800   -0.96692600
Se    6.20431000   10.40770000    2.30914000     -0.000523   -0.66953900    0.07492700
Se    5.18944000   12.85899000   10.75116000     -0.675961   -0.53820000   -1.36970800
Se    4.19659000   15.73107000    4.33810000      0.637989   -0.28264200   -0.00044500
Se    3.56746000   16.21225000   11.65997000     -0.834448    1.67992900   -0.54126000
Se    3.06003000    0.62219000    1.29413000      0.925436    0.98883200    0.82829100
Se    7.08590000   21.08811000   10.13157000     -0.308258    0.73049600   -0.77753600
Se   10.79621000    6.58102000    3.11784000      0.219752   -0.85260300    0.20128400
Se    7.36408000    3.40384000    8.88899000     -0.280068   -0.41542700    0.89827800
Se   10.65371000    9.48493000   17.44269000      0.520606    0.93114000    0.70282700
Se    7.27477000   10.85356000    9.19676000      0.210932   -0.39322400    0.07401400
Se   10.59401000   17.25693000    0.05500000     -0.322872    0.26013000    0.30062600
Se   11.52835000   14.40132000   11.40987000     -0.454351    0.11528200    0.61451700
Se   13.58012000   22.60284000    0.99791000     -0.168509   -0.98666600   -0.04375300
Se   11.39014000   21.73532000   11.55460000     -0.046381    0.34056900    0.17637400
Se   13.44338000    4.98421000    1.65661000      0.739036   -0.52319200   -0.46256900
Se   17.50257000    7.25433000   11.15618000      0.617447   -0.46274000   -0.75833900
Se   15.26724000    9.62306000    1.14655000      2.086513    0.64850900    1.07708500
Se   15.75803000   10.33490000   12.37585000     -0.764487   -0.34109600   -0.07109400
Se   18.52562000   13.92087000    3.91211000     -0.203644   -0.29202800   -0.59441400
Se   14.39933000   13.41507000   10.20710000      0.539845   -0.09492400   -0.31397200
Se   16.96303000   22.78778000    1.88930000      0.924370   -0.18475100   -0.80561800
Se   14.66021000   20.13014000    9.77560000     -1.482425   -0.36223400   -1.58899000
Se   20.70594000    1.21874000    0.91237000      0.459652    0.21281900    0.48404800
Se   21.63674000    2.95242000   10.12576000      0.476151    0.81565000   -0.92221000
Se   19.77929000    6.44485000    0.75495000     -0.273037    0.55924400   -0.10572800
Se   21.41868000   10.19488000   10.43660000      0.387883   -0.26938200    0.26764900
Se   20.79933000   13.61646000    0.70410000     -1.094177   -1.65516900   -0.55204900
Se   22.51202000   15.99761000   12.24316000      1.809861   -0.74553900    0.39287300
Se    0.25985000   21.89823000    1.99310000     -1.586973   -0.60610400    1.04664300
Se   19.87643000   20.70469000   15.18396000     -0.112004    0.24500000   -0.16384000
Se    3.98539000    5.22246000    8.47218000     -0.326791    0.06839900   -0.37817400
Se    1.12684000    6.68875000   16.48697000     -0.003070   -0.35506200   -0.88755200
Se    4.03072000   10.79697000    8.44665000     -0.668547    0.37679100    0.13457800
Se    3.74562000    9.56129000   17.97447000      0.069980    0.16610700    0.46280700
Se    4.59948000   18.59680000    7.24840000     -0.397822    0.55772300    0.18310500
Se    0.14836000   17.68922000   16.93417000      0.095747   -0.08224200   -0.27609600
Se    3.19566000   21.90466000   11.99241000     -0.370162   -0.17364000   -0.37668000
Se    6.23784000   21.34997000   17.47212000      0.400818   -0.03898200   -0.23480500
Se    7.20592000    3.58300000    5.71991000     -0.243571    0.02754700   -0.06408300
Se    6.09704000    3.63287000   17.27632000     -0.104213    0.60320300   -0.08163600
Se    6.37650000   10.62352000    6.06271000      0.345063    0.26130300   -0.06832800
Se    4.86345000    7.19751000   16.49792000      0.370570   -0.77116200   -0.18700700
Se    6.21346000   16.66715000    9.80731000      0.622168    0.03041500   -0.01402800
Se    6.93121000   17.21969000   18.58882000      0.015296   -0.16441600    0.11001100
Se    8.33107000   18.77850000    7.46817000      1.006360   -0.91156200    0.89245000
Se    6.58320000   22.61433000    0.67273000     -0.070388    0.25800100   -0.11031300
Se   14.11446000    3.12182000    9.70463000     -1.484415   -0.42337200   -0.64502300
Se   12.87899000    4.77858000   17.37127000     -0.267607    0.01455200   -0.48387300
Se   13.06405000    7.93429000   10.28894000      0.218112    0.04957600   -0.03330200
Se   13.52207000   11.35952000   15.64981000     -0.649776    1.33493800    1.20159700
Se   13.27990000   15.00651000    6.61728000     -0.327788   -0.51330700   -0.14822900
Se   13.83164000   15.06600000   16.65495000     -0.325385    0.70880700    0.97393400
Se   12.98322000   21.62580000    5.47389000     -1.768395    0.02498200    1.25586600
Se   16.57523000   22.37712000   17.35126000      0.003369   -1.21821700    0.12657700
Se   18.31708000    3.31551000    9.05737000     -0.083202    0.20135100    0.50772000
Se   20.14931000    3.72606000   17.31502000      0.094396   -0.38365300    0.56183000
Se   18.60207000    8.59126000    8.30721000     -0.044540    0.78798600   -0.62151000
Se   16.86054000   10.34934000   16.14793000      0.190773    0.32285900    0.15852400
Se   15.25700000   16.33007000   10.45442000      0.606364    0.12708800    0.76803500
Se   18.28044000   15.04983000   15.83676000     -0.052221    0.18640200    0.57324100
Se   18.07357000   19.14060000    8.81418000     -0.527739    0.02111800    0.15162000
Se   20.23187000   19.57393000    2.04816000     -1.085096    0.27667800    0.66273300
Se    4.22663000    0.05782000    8.12635000      0.117182    0.12366900    0.93775900
Se    1.00312000    4.24595000   16.62827000      0.745899    0.14637400   -0.04662000
Se    7.12152000    7.22087000   10.80930000      0.078514   -0.21996500   -1.28279900
Se    3.35488000    6.16041000   18.67180000      0.117484    0.06233600    0.11567800
Se    3.92728000   15.74996000    7.00683000      0.656661   -0.64832900    0.09937800
Se    5.43043000   14.05235000   18.94533000     -0.204285   -0.54227000   -0.66683600
Se    3.00564000   20.52501000    9.52938000      0.581804    0.22502400    0.37407900
Se    0.43531000   16.93725000    0.38900000     -0.607441   -0.01856100    0.42450400
Se    9.98757000   22.31828000    8.25605000     -0.888299    0.53961000    0.20487800
Se    9.85609000    3.37547000    0.04218000      0.424379    0.04411100    0.24010100
Se   11.40687000    4.94422000    9.38547000      0.748574   -0.29791600   -0.15288100
Se    6.64557000    8.57289000   18.59861000      0.356358   -0.19198200   -0.01467800
Se   10.74780000   14.09221000    8.43049000      0.254674   -0.06556800   -0.20107800
Se    8.46471000   12.88528000   18.06788000      0.820374    0.15821200   -0.35913500
Se   11.55794000   20.67635000    7.82834000      0.972272   -0.36608400    0.29255900
Se   11.51988000   14.40983000   16.91125000     -0.483305    0.55521300   -0.15986600
Se   16.65987000    0.23092000    8.34692000     -0.588562   -0.43717100    0.82698600
Se   16.39066000    2.91937000   18.12717000     -1.087501    0.31235400    0.45994400
Se   15.69390000    5.56530000    9.32778000      0.536797    0.27808500   -0.07116700
Se   13.83395000    9.02758000   18.91465000     -0.531735   -1.07125600   -2.55163900
Se   16.99506000   12.45720000    9.69523000     -0.203036   -0.08851500   -0.45552600
Se   16.81237000   13.69700000   18.80871000      0.081438   -0.24655100   -0.12926300
Se   14.84949000   18.21426000    6.94579000     -0.619756    0.28032000   -0.13878200
Se   16.75061000   18.26605000   19.29146000      2.430689    0.76081600    0.70925700
Se   22.17572000   22.33864000    9.12143000      0.085104   -0.54960000    0.04799100
Se   22.87563000    0.68236000   15.06766000     -0.297556   -1.31116100    0.69767600
Se   20.51202000    6.25919000    8.00604000     -0.005526   -0.24615700   -0.23462400
Se   21.27433000    7.76504000   18.31434000      0.036076   -0.45994700    0.73175000
Se   22.06982000    9.72881000    6.78972000      0.243015   -0.61726300    0.04851500
Se   21.13463000   10.91781000   17.73710000      0.707750    0.30443200   -0.77310200
Se   19.73416000   16.56741000    7.43655000      1.036688    0.23135300    0.30098700
Se   20.01849000   16.00358000   17.14336000     -0.259722    0.19253900   -0.53748400
Se    3.20912000    2.48258000   10.46068000      0.099771   -0.13195500    0.24845800
Se    3.15247000    1.03054000   15.19517000     -0.598556   -0.57087600   -0.38430400
Se    0.64334000    8.05404000    7.84400000     -0.423592    0.44229900   -0.22060400
Se    1.69017000    9.88528000   17.01165000     -0.901681   -0.36433000   -0.33644900
Se    0.82384000   16.29003000    6.60184000      0.384328    0.85586600   -0.26907000
Se    1.87945000   13.08837000   16.66280000     -1.075196    0.20549300    0.75250100
Se    0.28824000   18.66524000    6.95123000      0.009065   -0.27880600   -0.53545100
Se    2.26282000   20.49133000   15.96607000      0.095563    0.44206200    0.69091400
Se    7.89751000    0.37235000    6.15923000      0.154377    0.31291600    0.16071100
Se   11.07957000    0.66130000   17.79400000     -0.098423    0.59243200    0.11321300
Se    7.77051000    7.15676000    6.44135000     -0.001978    0.54112600   -0.89293500
Se    7.01149000    6.94154000   15.07880000     -0.291477    0.67641300    0.16315500
Se    7.39959000   14.13677000    5.83582000      0.650927    1.17586300    0.73844100
Se    9.20222000   16.94084000   14.44538000      0.239625   -0.01346100   -0.13578900
Se    5.03048000   19.75380000    4.87530000      0.238099   -0.92779900    0.14220900
Se    8.35859000   14.77826000   14.89616000     -0.518783   -0.04929400    0.25340000
Se   14.68704000   21.85665000    4.13426000      1.728813   -0.03109100   -1.69897900
Se   14.29235000    1.51565000   16.82008000      0.583860   -0.47262600   -0.63867400
Se   12.79083000    7.23388000    6.61422000      0.149021    0.27127200   -0.46715200
Se   11.27020000    7.09689000   15.73325000     -0.309008   -0.38095100   -1.28529200
Se   12.81846000   11.85854000    4.98619000      0.012670   -0.16873400    0.46368400
Se   14.61684000   14.26346000   13.28875000      0.211252   -0.13219000    1.07494300
Se    9.95227000   16.43876000    5.62182000     -0.075476    0.05201900   -0.10795300
Se   14.08795000   19.80294000   17.71152000     -0.737693    0.29738400    0.49125700
Se   20.54948000    1.25736000    5.26560000     -1.069341    0.24065300   -0.43611900
Se   18.51494000    0.61866000   17.66183000      0.394197    0.09665000    0.37468300
Se   17.39961000    4.63531000    5.92202000      1.843747   -1.10856600    0.38432400
Se   17.99389000    6.85129000   16.32567000      0.590622    0.35446800   -0.10846200
Se   20.18590000   10.66258000    4.54244000     -0.351260   -0.04707300   -0.00867200
Se   16.86018000   13.22242000   12.75266000     -0.200558   -0.15328900    0.08372100
Se   16.94633000   18.89035000    5.64722000      0.229001   -0.05323700    0.16592400
Se   17.53442000   22.66326000   13.73723000     -0.013110   -0.87413200    0.30049100
Se    3.21788000    7.06020000    7.21988000      0.248208    0.69190600    0.28892200
Se    3.04617000    4.68501000   13.57677000     -0.785910   -1.73939200    0.30686900
Se    3.13593000    9.32949000    4.04409000     -0.002679    0.24331300    0.24117800
Se    5.28569000   12.01082000   15.45944000      0.541875   -0.44128600    0.03287600
Se    5.41361000   13.40109000    6.67224000     -1.224309   -0.02243300    0.49495100
Se    4.05269000   17.92480000   18.00938000     -0.600297    0.08752300   -0.10961700
Se    1.74381000   21.61044000    5.79025000      0.934554   -0.18362300    0.18582100
Se    5.08178000   22.39241000   14.24990000     -0.079113    1.33569700    0.37392500
Se   10.67222000    2.03109000    6.50956000      0.309504    1.19344800   -0.11140200
Se    9.31612000    3.51344000   15.72922000     -0.447585    0.22742700    0.22697200
Se   10.59756000   10.24738000    6.57880000      0.760533    0.30649600   -0.98446600
Se    9.34562000   11.35110000   14.76880000      0.013084   -0.29559100    0.02862300
Se    8.52631000   15.11160000    9.26031000     -1.297574   -1.41159100    0.82072600
Se   12.36438000   18.14843000   16.16294000      0.654472   -0.22319500    1.00436300
Se   10.03519000   20.56072000    3.97705000      0.263257   -0.29140400    0.17926300
Se    8.44023000   20.83925000   18.59494000     -0.318523    0.20266800   -1.27673900
Se   13.88773000    4.45131000    5.32085000      1.038685   -0.45027800    0.30238100
Se   18.73737000    3.10973000   15.00525000     -0.820267   -0.38370200    0.00029100
Se   15.50834000    9.54197000    6.38096000     -0.267502    0.23963700    0.80611300
Se   18.03496000    9.84855000   12.58313000      0.435100   -0.07186900    0.34530900
Se   17.80915000   12.01164000    5.72523000     -0.212122   -0.05536300   -0.13726000
Se   16.91013000   18.52287000   16.15854000     -0.089302    0.51986200   -0.52531400
Se   15.97256000    0.67815000    4.82834000      0.030357    0.65239200    0.01954800
Se   18.94382000    3.44796000   12.70856000     -0.505164    0.30403000   -0.57910100
Se    0.18809000    3.90375000    7.60281000     -0.016089    0.45233000   -0.05824000
Se   22.69924000    3.46890000   14.51849000     -0.171341    0.23668500   -0.31995200
Se   19.70354000   12.48745000    8.41016000     -0.792235    0.47910600    0.89885600
Se   22.71370000   11.75336000   15.86582000     -1.265857   -0.40331100    0.25483200
Se   21.65170000   13.28654000    7.10443000     -0.098078    0.44304500    0.26817200
Se   20.61088000   17.75887000   14.00574000      0.686836    0.69024700    0.56950800
Se   19.35381000   20.91282000    7.76890000      0.221531   -0.03294100   -0.24240300
Se   22.12539000   21.08477000   18.13158000     -0.044860    0.32410100   -0.05027900
Se    3.51529000    2.64738000    5.34175000     -0.073995    0.46848800    0.26515500
Se    6.25026000    1.16712000   16.72824000      1.222854   -0.72728100    1.30942900
Se   22.76762000    4.23701000    0.29366000      0.456034    0.12420900    0.33853900
Se    4.38959000    9.48087000   11.38613000     -0.158987    0.27405400   -0.51779400
Se    0.85320000   12.39869000    2.83914000      0.822902   -0.08266500   -0.84667500
Se    3.87370000   15.57720000   15.53863000     -0.661774   -0.59714300   -0.74527200
Se    4.39067000   15.99813000    1.83252000      0.334682    0.40505100   -0.08719200
Se    5.56643000   18.98943000   12.55868000      0.518055   -0.78483000    0.31934100
Se   10.72957000    0.88895000    2.68602000      0.662711   -0.32478100   -0.13018300
Se   11.54882000    1.42170000   14.14338000     -0.126245    1.71094600   -0.70013500
Se    9.66404000    8.88551000    2.97025000      1.089849    0.49271300   -0.41506600
Se    7.79588000    9.04666000   16.05578000     -0.225252   -0.53436600    0.09812900
Se    9.56262000   12.44568000    4.13399000     -0.274277   -0.11002700   -0.56341500
Se    9.59292000   12.32942000   11.56805000     -0.228852    0.54371800    0.91195400
Se    8.79640000   20.66172000    1.96400000     -0.167166   -0.39255200    0.24170100
Se   11.57041000   19.14789000   14.27412000     -0.379379    0.61114000   -1.05415500
Se   18.15361000    1.52962000    6.93388000      0.849523   -0.47428300   -0.64724400
Se   14.62631000    2.00209000   13.36890000      0.551787    0.08962200   -0.38795100
Se   15.92368000    7.16082000    4.04176000     -0.035704    0.29549300   -0.60222900
Se   15.14922000    5.11442000   15.18827000     -1.556399   -1.95260600    1.08291300
Se   14.76134000   12.44651000    2.51344000      0.945294    0.67198300   -0.04937700
Se   17.74445000   17.09777000   13.87525000     -1.035330   -0.20017100    0.47932100
Se   15.57584000   15.59508000    4.12699000     -0.521608    0.50991300    0.53554200
Se   16.06197000   20.27410000   14.34188000      0.544199    0.20469500   -0.10258600
Se   22.70705000   22.79963000    5.66328000     -0.473746    0.29102000   -0.12500800
Se   20.62526000    0.21279000   12.23740000      0.448338   -0.43887800    1.36103800
Se   21.08184000    4.78273000    4.42144000      0.248775   -0.06378700    0.55560600
Se   20.50790000    8.77187000   13.90029000      0.021407    0.43078600    0.63088100
Se    0.81626000   13.11884000    5.90640000      1.388243    0.04148400   -0.01682100
Se   21.57650000   14.10441000   16.05094000      0.092886   -0.23978000    0.30117900
Se   22.07893000   19.08242000    4.76036000     -0.919381   -0.71791400    0.64698400
Se   21.60017000   19.26841000   10.23315000     -1.197246    0.49698800   -0.45718500
Se    0.26663000    5.04486000    5.52016000     -0.239011   -0.11183100   -0.52963700
Se   21.78623000    5.58399000   14.23384000     -0.604995    0.64926400    0.41270100
Se   21.75462000    9.70977000    2.99359000      0.348285    1.90356200   -0.71582800
Se    1.12340000   11.41473000   12.50722000     -0.048518   -1.18177200    0.37688500
Se    1.13438000   14.25728000    1.17581000      0.021606   -0.45250500    0.70887800
Se    1.32224000   20.84209000   13.00131000     -0.139002    0.13069300   -0.85200300
Se    4.40475000    0.13693000    3.48985000     -0.473426    0.41337600    0.61306300
Se    3.73397000   19.26190000   14.15585000     -0.416833    0.11461400    0.40311600
Se    9.69176000    6.77823000    7.95507000     -0.127314   -1.45352500   -0.31699700
Se    6.62244000    4.83445000   13.01009000      0.128809   -1.41133500    0.92885000
Se    5.93039000    6.77559000    3.84837000      0.187296   -0.71696400    0.40303600
Se    7.54123000   10.79329000   12.59871000      0.548636   -0.46863400   -0.14008500
Se    7.65085000   17.37461000    3.24223000     -0.074857    0.00347100    0.67205200
Se   11.90530000   14.46621000   13.96434000     -0.143229    0.02802400   -1.18688400
Se    6.97959000   21.17115000    6.84604000      0.849333   -0.76130500    0.17729100
Se    8.02917000   22.08411000   14.04773000     -0.295288   -0.38068700   -0.19677800
Se   12.77687000    2.23684000    3.52984000     -0.029040   -0.15935400   -0.08549100
Se   10.24719000    2.66239000   12.23761000     -0.531250   -0.14663700    0.73034500
Se   14.02422000   10.36943000    3.32467000     -0.954160   -0.36198500    0.83416000
Se   12.46369000    9.57094000   13.05254000     -0.099138   -0.85017400   -0.11050800
Se   12.17743000   15.13083000    3.00855000     -0.138800    0.27446200   -0.56498200
Se   14.68107000   18.35837000   12.16592000      0.213627   -0.70166000    0.99824900
Se   13.68088000   18.75975000    2.35604000     -0.050023    0.27414100   -1.05923700
Se   13.52929000   22.30684000   15.30814000     -0.143632    0.19722400    0.25932000
Se   17.12270000    5.44048000    0.97352000     -0.083673   -0.18137200   -0.10785100
Se   16.42777000    6.16633000   13.72514000      1.512340    1.61997000   -2.00446100
Se   17.68150000    8.86292000    3.95312000     -0.062246   -0.11773100    0.04008600
Se   20.35323000   12.90508000   12.83006000      0.632690   -0.02469600   -0.40173100
Se   22.13570000   15.61504000    3.99124000     -0.802296    0.52382300   -0.24681200
Se   19.30545000   15.88804000   11.12726000     -0.778506   -0.29949700   -0.81871900
Se   19.58465000   21.61574000    3.69093000      0.237627   -0.56412900    0.16491400
Se   15.95490000    0.41343000   11.00871000      0.394414   -0.03154600    0.17316300
