384
23.00800000 23.00800000 19.32000000
Ge    5.45926000    5.26814000   10.61049000      0.212266   -0.05104400    0.43003800
Ge    5.05792000    6.20142000    1.33868000     -0.376134   -0.58876900   -0.29453200
Ge    1.64458000   11.81556000    8.06266000      0.519788   -0.34147900   -0.00428000
Ge    6.06709000   11.39460000   18.01055000      0.158375    0.30686800    0.13975600
Ge    4.26602000   14.94999000    9.52615000     -0.002234   -0.10955100    0.06840400
Ge    8.31156000   18.06041000    1.11538000      0.197063    0.38795300   -1.25101100
Ge    9.60997000   19.99600000    9.65827000     -0.770054   -0.15805600   -0.17081700
Ge    4.91392000    2.26530000    0.03085000      0.057681   -0.12127800    0.41072500
Ge    8.55645000    5.08912000   11.60549000      0.956664    0.05602100   -0.69109900
Ge   11.12677000    5.10527000    1.07643000      0.180998    1.27848800   -0.40653400
Ge   10.73182000   11.91609000    9.42455000     -0.035404   -0.96446900   -0.21932000
Ge   11.04191000   12.08244000   17.52222000     -0.900028   -1.14196600    1.08959500
Ge    9.64195000   16.65609000    7.98905000      1.082084    2.12589600   -0.70438700
Ge   11.74334000   14.99233000    0.40052000      0.531723   -0.63539600   -0.02572700
Ge   10.48914000    1.85963000    9.07988000      0.220571   -0.16551100    0.65204600
Ge   15.67493000   20.98029000    0.57497000     -0.358830    1.08686000   -0.46702200
Ge   19.08523000    5.64618000    9.86446000     -0.653135   -0.12951800    0.85136100
Ge   19.30081000    9.40900000   16.37692000     -0.038691   -0.46982700   -0.16793400
Ge   21.40312000   14.43207000   10.54351000     -0.326636   -0.77771700    0.46305800
Ge   16.79821000   11.20427000   18.56035000     -1.030126    0.38684900   -0.00087900
Ge   13.84686000   16.38892000    8.68323000     -0.705163    0.61653200   -1.02979500
Ge   18.01938000   14.65470000    1.44933000     -0.026835    0.26346300    0.08531300
Ge   19.00444000    0.68288000    9.42249000     -0.112537    0.02292900   -0.52387100
Ge   17.91915000    2.47501000    0.79591000     -0.167767   -0.48918900    0.47234100
Ge   22.45342000    5.70753000    9.68364000     -0.178969   -0.31190000   -0.48442800
Ge   20.41494000    3.90883000    0.43734000     -0.499163    0.18175400    0.54719000
Ge    0.84973000   10.04179000    9.88875000     -0.137654    0.01043700    0.03176500
Ge    0.82877000   11.91432000   18.97082000      0.910184   -0.18354300   -0.26855400
Ge   22.17202000   15.62887000    8.19368000     -0.618169   -0.59500400   -0.05761400
Ge    2.04090000   16.03210000   17.66896000      0.399530    0.14401700   -0.32961600
Ge   20.06248000   21.47309000   10.69310000     -0.006985   -0.39249500   -1.11543300
Ge    1.79429000   21.81643000    0.19421000      0.496098   -0.76116100   -1.39911200
Ge    6.07819000    8.93496000    7.91052000     -0.138011   -0.00011800    0.83549000
Ge    0.52944000    6.54657000   18.88196000      0.055689    0.07056700    1.13210200
Ge    0.68498000    8.23872000    4.97062000     -0.273872    0.32337100    0.73886100
Ge    4.18904000   13.38332000   16.91887000      0.735628    1.62770300    0.56805700
Ge    4.06366000   18.47515000    2.63608000      0.618814    0.21122200   -0.04873200
Ge    1.81513000   19.36467000   18.12733000      0.026281   -0.52727600    0.38181800
Ge    5.19097000   19.34407000   10.17690000      0.092301    0.05212900   -1.42764100
Ge    3.34081000   22.93133000   17.51136000      0.105462    0.09844300   -0.44950300
Ge    9.33413000    4.12434000    7.42705000      0.114161   -0.51736800   -0.46087500
Ge    8.31208000    5.02373000   17.69763000     -0.041902    0.11734800    0.16992300
Ge    6.84603000   12.50985000    4.01103000      0.180124    0.09522400   -0.42736700
Ge    8.10706000    7.65300000    1.26961000     -0.260246   -0.53240200   -0.81385700
Ge    6.40118000   16.79785000    7.22867000     -0.390453    0.50317500    0.05313700
Ge    8.59267000   15.54844000   17.31816000      0.322291   -0.09746200    0.28174800
Ge   10.43298000   22.83573000    4.94508000     -0.140785   -0.21847400    0.44280700
Ge   11.28038000   22.12144000   14.06019000      0.207861   -1.33429800    0.30597200
Ge   13.50099000    6.17115000    8.64752000     -1.523613    0.14450500    0.71650000
Ge   14.02487000    6.89967000   16.37173000     -0.024558   -0.06602600    0.57246600
Ge   13.18205000    9.53887000    7.54757000      0.100299    0.03248300   -0.40536500
Ge   15.19365000   13.19660000   15.88941000      0.378260    0.41721400   -0.78729100
Ge   13.29804000   17.19531000    5.04693000      0.663973   -0.46451400    0.22962100
Ge   14.54489000   17.71206000   19.18246000     -1.541262   -0.32432500    0.41428600
Ge   13.82302000   22.07761000    8.36189000     -0.488304    0.33118100    0.22139700
Ge   16.49816000    1.45174000   14.89070000     -0.234387    0.61781600    0.56267600
Ge   19.95778000    3.88588000    7.01119000     -0.153268    0.37621600   -0.75159500
Ge   20.47537000    5.97936000   16.70741000     -0.168939    0.37681700   -0.86036600
Ge   17.13353000   10.57605000    8.08356000     -0.144006   -0.13435500   -0.87238000
Ge   19.78971000   13.11991000   17.54017000      0.057209    0.53751600   -0.01194500
Ge   18.19940000   16.69966000    5.44114000     -0.453593   -0.71732900   -0.13195000
Ge   18.60476000   20.33809000   17.27528000     -0.092833    0.36067600   -0.25359700
Ge   21.77341000    1.37449000    7.41311000      0.405775   -0.10100700    0.02096400
Ge   19.67746000   22.04281000    0.44415000     -0.761265   -0.31673500   -0.03998000
Ge    4.88663000    3.16925000    7.32102000      0.683742   -0.53922400   -0.69400300
Ge    3.80475000    4.93216000   16.11196000     -0.100269    0.12735100    0.70817300
Ge    3.21926000    6.79413000    4.72520000      0.054902   -0.13018200   -0.35402500
Ge    2.64732000    8.97119000   13.09450000      1.777693    2.56690900    1.51388700
Ge    1.67169000   15.48991000    3.54993000      0.213896   -0.18585600   -0.49078800
Ge    0.41502000   18.60772000   14.66423000     -0.537134    0.10916900   -0.40553600
Ge    2.22644000    1.51253000    8.31537000     -0.392474    0.38468600    0.09329300
Ge    5.09611000   17.67959000   15.54433000      0.829010   -0.00833100    1.05806900
Ge    9.30706000    2.88368000    2.57963000     -0.234055    0.50955200    0.07654900
Ge    9.31673000    0.92731000   15.56946000      0.419958    0.88391800    0.64218800
Ge    8.80793000    9.36548000    5.08395000     -1.274652   -0.37005600    1.44997700
Ge    9.65602000    8.47216000   14.08841000      0.471563    0.37112900    0.12750000
Ge   11.14140000   14.25158000    5.09519000      0.156075    0.33507300    0.60260400
Ge   11.57865000   11.84248000   13.94790000     -0.071217    0.19341900   -0.21271800
Ge    5.70573000   21.10333000    2.88525000      0.489439    0.39975300   -0.62639000
Ge    9.98007000   19.08334000   16.29795000     -0.204010   -0.42865500   -0.02999200
Ge   13.89335000    1.92172000    5.81809000     -0.280916   -0.45654100    0.48689900
Ge   11.56877000    4.32940000   14.95659000      0.243069    0.37153000    0.73237400
Ge   15.71602000    6.14979000    6.48384000     -0.674262    1.35765600    0.27488200
Ge   14.60254000    9.53552000   14.59709000      0.220966   -1.15525300   -0.58329500
Ge   15.30903000   13.16926000    5.41716000     -0.299376    0.33992100   -0.19573600
Ge   15.10751000   17.01368000   14.49225000      0.338610   -0.24136200   -0.53983000
Ge   11.42143000   17.64703000    2.43629000     -0.278254   -0.07884700    0.73420900
Ge   10.74661000   21.65291000   16.84054000      0.219748   -0.84041600   -0.43234500
Ge   18.10466000    5.75288000    3.66728000      0.293598    0.30773800    0.61984700
Ge   21.18980000    2.58570000   12.44676000     -0.018639    0.03173900    0.52968300
Ge   19.81342000    8.50302000    6.03395000      0.357909   -0.22348600    0.16174900
Ge   18.65575000   11.60860000   14.26467000     -0.010893   -0.13068300   -0.13013200
Ge   21.50389000   15.58704000    1.58856000      0.128931    1.56325400   -0.85236800
Ge   18.63616000   14.55852000   13.39662000      0.893673    0.84284700   -0.51738400
Ge   19.57304000   19.80475000    5.43555000     -0.192547    0.55608300   -0.12612900
Ge   22.49943000   21.12725000   15.68240000     -0.679902   -0.26526500   -0.59326500
Ge    5.57680000    2.62830000    3.82700000     -0.389532   -0.00551400   -0.05233700
Ge    5.35422000    2.17677000   14.74881000     -0.334512   -0.50416200   -0.37591200
Ge    5.45543000    9.03585000    4.46683000     -0.062780    0.77363500   -1.63755800
Ge    6.17615000    8.44785000   12.63019000     -0.189511    0.72518300    0.82605300
Ge    6.77208000   15.15463000    2.65689000     -0.521273   -0.16792500    0.10646300
Ge    3.27776000   14.17757000   12.69693000      0.350386   -1.52902300    1.23359700
Ge    5.50789000   22.75756000    6.11370000     -1.821443    0.88860900   -1.29240800
Ge    7.53512000   20.55769000   12.37582000      0.383736   -1.57428300   -0.05268200
Ge   11.62884000    4.29462000    4.51958000     -0.880464   -0.32658700    0.16275200
Ge    7.40420000    2.25398000   13.07581000      1.013657    0.31281100   -0.85495900
Ge   11.73196000    9.41770000    0.57858000     -1.723989    0.69799900    0.75341300
Ge   12.33166000    6.82896000   13.23892000     -0.370049    0.50299300    0.42432900
Ge    9.47092000   13.38151000    1.81805000     -0.025994   -0.58813200   -0.86667700
Ge    8.98756000   15.04179000   11.95170000      0.269712   -0.16374900   -0.07361300
Ge   12.10067000   20.52002000    0.84201000      1.180100    0.25564400   -0.12904900
Ge   12.30708000   19.41076000   11.48529000     -0.040561   -0.72580500   -0.50996800
Ge   21.67731000    0.56249000   17.26464000      0.143749    0.29439900    0.81342600
Ge   14.52628000    5.64029000   12.21712000      0.234216   -0.29362700   -0.03711200
Ge   17.74167000    8.32543000    1.33519000     -0.347833   -0.50167500   -0.18685700
Ge   15.12925000    9.30391000    9.81694000      0.484218    0.21873700    0.61475200
Ge   17.38462000   11.56974000    3.15306000      0.025614    0.42479600    0.19931400
Ge   18.51170000   14.80435000    8.61877000     -0.556564   -0.57720500   -0.10984800
Ge   17.62916000   17.74311000    2.56476000      0.577453    0.12562100   -0.80620200
Ge   15.62453000   20.85817000   11.65811000      1.559741    0.58052100    1.74661600
Ge    0.27021000    1.43432000    1.66362000     -0.109539    0.75532300    0.98713300
Ge    0.24887000   22.55063000   11.46800000     -0.147012    0.90203300    0.30183200
Ge   21.73634000    7.41542000    3.38266000     -0.953300   -1.48046500    0.28965600
Ge   22.46950000    9.53102000   12.57612000      0.022615    0.49932000   -0.29101000
Ge   21.78558000   13.11760000    4.24863000     -0.485507   -0.19954200   -0.13433100
Ge    1.19530000   16.44243000   10.33879000      0.295882    0.12994100    0.21723500
Ge    0.86781000   20.34441000    3.85154000      1.539985    0.46036100    0.12760100
Ge   20.95178000   17.60047000   11.62162000     -1.030020    0.39847500    1.39623100
Se    0.93233000    1.48433000   18.64362000      0.373024   -0.72113800   -1.53294600
Se    1.32048000    3.24869000   11.69944000      0.556969    0.09975300   -0.16156300
Se    0.78752000    7.06161000    2.29062000      0.471345   -0.17482000   -0.55811700
Se    1.05007000    7.60323000   12.41567000     -2.932968   -1.48515400   -1.43480600
Se    3.50165000   11.04825000    0.47118000     -0.433530    0.24017300   -0.34982800
Se    1.48954000   13.89074000    9.40847000      0.195415    0.13458400    0.35390600
Se    1.64880000   18.20062000    2.41423000     -0.503476    0.01299800    0.30130300
Se    1.03467000   19.23863000   10.01435000      1.080426   -0.09048500    0.00066000
Se    7.32649000    1.66608000    1.48768000     -0.450583    1.33508800    0.45258500
Se    7.44424000    1.45619000   10.30099000     -0.191650    0.28186600    0.37599100
Se    7.15154000    5.01978000    0.88288000      0.527268    0.69962300    0.17334600
Se   10.29503000    7.11789000   11.80102000     -0.036343   -0.23572900    0.89798300
Se    8.06666000   11.03232000    0.70872000      0.223032    0.97847300    0.70088900
Se    5.87308000   13.81617000   12.68797000      0.083002    0.76825100    1.18582900
Se    4.61409000   20.32300000    0.83240000     -0.406795   -0.91772700    0.58976500
Se    9.18595000   18.59468000   11.83412000     -0.363249    0.36361300    0.55461400
Se   14.41834000    2.95501000    0.41643000     -0.061812    0.62808200   -0.04672100
Se   12.67520000    1.05925000   10.29328000      0.699261   -0.01141300   -0.53442200
Se   10.45715000    7.34728000   19.06211000     -0.815739   -1.12637100    0.25003300
Se    9.74017000    9.01599000    8.35605000     -0.558102    1.59417800    2.23590100
Se   11.91097000   12.23603000    0.61391000     -0.550822    0.40504300   -0.04660300
Se   13.51054000   11.30961000   10.31707000     -0.960657   -0.81261700   -0.07816800
Se   15.32710000   15.21991000    1.78081000      0.692916    0.16621100   -0.13126500
Se   11.63489000   17.47682000    9.38555000      0.268236   -0.32474200   -0.19361000
Se   16.62936000    3.98744000    2.90564000     -0.099179   -0.91511900   -0.97696700
Se   16.08426000    2.98457000   10.84930000      0.476738   -0.24696800    1.21911900
Se   16.32240000    7.43329000   17.88897000      0.195307   -0.33351200   -0.01152200
Se   20.25023000    6.95751000   11.51930000     -0.070257   -0.29717200    0.14581800
Se   18.72043000   10.40964000    0.27979000      1.429607    0.00528200    0.42397000
Se   16.46271000   15.29887000    7.05902000      0.829343   -0.02939700   -0.04940000
Se   19.53381000   17.24845000    0.49304000      0.555613   -0.50705800    1.35624900
Se   17.86889000   19.40900000   11.15405000      0.208428    0.46432200   -0.00439300
Se    4.07655000    3.81616000    1.89214000      0.023480    0.24152000    0.26854200
Se    3.80943000    6.39082000   12.40081000      0.702474    1.81208400   -1.25013700
Se    6.17332000   10.44968000    2.33811000     -0.090073   -0.73139400    0.16527900
Se    5.20312000   12.88355000   10.75678000     -0.539720   -0.67606700   -1.23173100
Se    4.19707000   15.74906000    4.29652000      0.596335   -0.32086600    0.13564000
Se    3.58406000   16.23544000   11.65628000     -0.787760    1.72186300   -0.91674200
Se    3.10669000    0.58081000    1.24536000      0.903392    1.00455200    0.90870900
Se    7.13175000   21.11585000   10.14127000     -0.485226    0.44266400   -0.84881900
Se   10.77128000    6.59021000    3.17985000      0.094044   -0.65974800    0.06604100
Se    7.35233000    3.36208000    8.88491000     -0.094115    0.00259500    0.58573100
Se   10.69956000    9.51704000   17.41229000      0.469964    0.82238100    0.64501900
Se    7.23193000   10.87112000    9.20081000      0.227684   -0.26931300    0.18640600
Se   10.57226000   17.23723000   19.31472000     -0.215166    0.36274700    0.39208900
Se   11.51576000   14.36067000   11.39477000     -0.374049    0.13669200    0.65107700
Se   13.57786000   22.61409000    1.00053000     -0.074434   -1.07500800   -0.00505100
Se   11.40506000   21.68075000   11.60265000     -0.026893    0.57338000    0.01541800
Se   13.45229000    5.02514000    1.68841000      0.091938   -0.58622100   -0.71032800
Se   17.53959000    7.24922000   11.23911000      0.757222   -0.43504900   -0.80106100
Se   15.32390000    9.69814000    1.14344000      1.652512    0.26875200    0.34842500
Se   15.78049000   10.32432000   12.36620000     -0.775243   -0.28865300   -0.24070300
Se   18.44569000   13.91099000    3.93752000      0.041460   -0.17011400   -0.51760000
Se   14.36865000   13.41962000   10.24779000      0.795761    0.57841600   -0.33516400
Se   17.01317000   22.75075000    1.91753000      0.796992   -0.31040600   -0.89988400
Se   14.65938000   20.10967000    9.77885000     -1.876620   -0.56474200   -2.59007000
Se   20.74053000    1.21971000    0.88618000      0.179616    0.09935300    0.42368800
Se   21.62008000    3.02194000   10.13966000      0.436703    0.67327700   -0.44064400
Se   19.77517000    6.47577000    0.76021000     -0.140484    0.49716300   -0.15252900
Se   21.43968000   10.16666000   10.42807000      0.192233   -0.18406500    0.23508400
Se   20.89394000   13.56545000    0.65319000     -0.732490   -0.99847100   -0.20857100
Se   22.50146000   16.03233000   12.29735000      1.976933   -0.96376100   -0.01294200
Se    0.26538000   21.91799000    1.97276000     -1.526794   -0.94661300    1.01758500
Se   19.81433000   20.76039000   15.11721000      0.000328    0.13487300   -0.03850600
Se    3.97557000    5.24595000    8.45708000     -0.132109   -0.40561800    0.06154800
Se    1.10886000    6.67353000   16.45163000     -0.005983   -0.00203500   -0.69946800
Se    4.01375000   10.82126000    8.49120000     -0.537256    0.28100000    0.08519400
Se    3.74327000    9.54049000   17.96240000      0.120240    0.18162900    0.63522800
Se    4.55724000   18.60060000    7.22775000     -0.109824    0.30880400   -0.09902500
Se    0.12522000   17.74060000   16.93156000     -0.086973   -0.39881500   -0.21317700
Se    3.21091000   21.90403000   12.01232000     -0.351971   -0.07609500   -0.41446500
Se    6.36387000   21.43750000   17.48836000      0.040379   -0.26247600   -0.57646000
Se    7.20286000    3.58534000    5.67290000     -0.220495    0.07268300   -0.07670700
Se    6.10441000    3.64408000   17.30687000     -0.197403    0.70716400   -0.19065900
Se    6.41245000   10.60904000    6.03860000      0.299539    0.32081700    0.20596300
Se    4.89829000    7.22862000   16.41368000      0.158054   -0.92051900   -0.17561700
Se    6.20869000   16.67535000    9.80833000      0.522090   -0.07716200   -0.47215000
Se    6.87661000   17.17297000   18.56087000      0.227383   -0.09169300    0.29736400
Se    8.35351000   18.76810000    7.48895000      0.859990   -0.68738600    0.85575000
Se    6.64678000   22.64307000    0.71888000     -0.243711   -0.66684400   -0.16098600
Se   14.10271000    3.15234000    9.70398000     -1.490688   -0.46480000   -0.70655800
Se   12.83803000    4.82067000   17.38817000     -0.184525    0.01674900   -0.61100100
Se   13.07283000    7.98618000   10.33070000      0.326487   -0.15057700   -0.15553400
Se   13.51467000   11.39836000   15.68618000     -0.609200    0.92362600    1.02256300
Se   13.32519000   15.04163000    6.64683000     -0.322372   -0.45553200   -0.23009400
Se   13.80359000   15.08782000   16.64549000     -0.000127    0.18737100    0.74206100
Se   12.92777000   21.65051000    5.44312000     -1.121843    0.00991900    0.90526400
Se   16.59514000   22.38394000   17.27274000      0.108853   -1.26336200    0.23962300
Se   18.32885000    3.27820000    9.07308000     -0.109837    0.47848700    0.47293800
Se   20.15679000    3.68797000   17.33895000     -0.010448   -0.40408100    0.03711900
Se   18.55122000    8.56091000    8.29675000     -0.156860    0.86147100   -0.45893700
Se   16.83164000   10.38694000   16.22290000      0.318240    0.20151000   -0.04218400
Se   15.27832000   16.33905000   10.46154000      0.468900    0.13753800    0.53372100
Se   18.31053000   15.06931000   15.79308000     -0.345892    0.15157800    0.66807100
Se   18.06559000   19.13050000    8.79775000     -0.586849   -0.04927200    0.28155500
Se   20.24751000   19.57408000    2.03757000     -1.060023    0.20899100    0.62956200
Se    4.17803000    0.12154000    8.15772000      0.627864   -0.05481000    0.41333700
Se    0.94891000    4.30050000   16.66500000      0.666954   -0.21648400   -0.04587700
Se    7.10171000    7.23453000   10.83372000      0.525820   -0.28849000   -1.83985800
Se    3.39255000    6.17729000   18.64589000      0.003106    0.07436800    0.03650800
Se    3.93711000   15.71600000    7.06371000      0.589278   -0.56892100   -0.15030200
Se    5.38629000   14.11001000   18.95495000     -0.130409   -0.72422500   -0.80948100
Se    2.99189000   20.55949000    9.48602000      0.458572    0.04958200    0.56623200
Se    0.43353000   17.01097000    0.35452000     -0.506543   -0.25741100    0.56289300
Se    9.97650000   22.29686000    8.24377000     -1.329342    1.29124900    0.36490400
Se    9.86940000    3.27368000    0.03920000      0.506575    0.27406900    0.16944700
Se   11.36460000    4.93512000    9.42676000      0.910177   -0.32188500   -0.18703200
Se    6.65191000    8.60806000   18.57278000      0.408167   -0.27616600   -0.03720200
Se   10.70725000   14.09121000    8.38737000      0.434612   -0.12672200   -0.23180200
Se    8.48398000   12.84172000   18.10032000      0.802159    0.16799100   -0.41561900
Se   11.49624000   20.68842000    7.84698000      1.870362   -0.94764100   -0.13746900
Se   11.48630000   14.38149000   16.96315000     -0.196213    1.02594500   -0.53142500
Se   16.69871000    0.19438000    8.35987000     -0.719694   -0.52452000    0.93090400
Se   16.38569000    2.92779000   18.16211000     -1.109131    0.26277600    0.26611300
Se   15.73546000    5.55440000    9.32045000     -0.052714    0.43323200   -0.22568600
Se   13.81259000    9.08733000   18.92981000      0.376246   -1.01538400   -2.41841200
Se   16.94225000   12.47875000    9.71778000     -0.098644   -0.11498000   -0.45726000
Se   16.81616000   13.67401000   18.77736000      0.008222   -0.45437000   -0.07585300
Se   14.87448000   18.18294000    6.88397000     -0.671513    0.27762900   -0.15750900
Se   16.81568000   18.26410000   19.28888000      1.351299    0.50413000    0.74105900
Se   22.12263000   22.43428000    9.11120000      0.211933   -0.82437500    0.24394700
Se   22.83874000    0.64227000   15.09727000     -0.022281   -1.22670800    0.16905000
Se   20.46048000    6.25484000    7.97187000      0.338181    0.02061400   -0.25524500
Se   21.28907000    7.79697000   18.35429000     -0.136203   -0.61778200    0.43597900
Se   22.05788000    9.74078000    6.80570000      0.232336   -0.65664200    0.09207300
Se   21.17876000   10.96770000   17.77889000      0.774562   -0.02737200   -0.65121000
Se   19.77209000   16.56276000    7.44295000      0.985466    0.33946500   -0.00451100
Se   20.01946000   15.96531000   17.13642000     -0.213722    0.42215600   -0.37779300
Se    3.25185000    2.43271000   10.49046000     -0.545112   -0.13718700   -0.13431500
Se    3.14641000    1.11135000   15.21134000     -0.580617   -0.62101600   -0.32664200
Se    0.60655000    8.04802000    7.87719000     -0.386915    0.39546000   -0.20590500
Se    1.71258000    9.87934000   16.99042000     -0.888441   -0.21684100   -0.38777700
Se    0.83762000   16.32583000    6.57927000      0.278721    0.05361000   -0.09914900
Se    1.90588000   13.04886000   16.65543000     -1.221355    0.18701400    0.72009900
Se    0.28475000   18.58919000    6.90338000     -0.144871    0.41676400   -0.38531800
Se    2.25233000   20.45388000   16.00038000      0.172924    0.76974200    0.52308000
Se    7.86651000    0.40541000    6.18742000      0.194058    0.41603100    0.07155800
Se   11.16519000    0.62727000   17.83101000      0.015212    1.05136600    0.35017500
Se    7.76803000    7.14311000    6.46392000      0.099177    0.64306900   -0.84215900
Se    7.02713000    6.95063000   15.04761000     -0.284299    0.56978200    0.14043700
Se    7.37830000   14.18273000    5.81997000      0.616251    0.94562700    0.54110000
Se    9.22181000   16.89751000   14.49288000      0.266525    0.32850800   -0.08357500
Se    4.98956000   19.77872000    4.96849000      0.111828   -0.85322200    0.07316400
Se    8.42556000   14.74210000   14.94260000     -0.613141   -0.28761300    0.11157300
Se   14.72295000   21.90086000    4.14194000      0.793959   -0.57766900   -1.39342000
Se   14.33841000    1.50571000   16.81040000      0.563627   -0.42726400   -0.58756700
Se   12.75443000    7.18208000    6.60014000      0.204483    0.33733000   -0.26750800
Se   11.31151000    7.11249000   15.73302000     -0.449135   -0.47796000   -1.28590100
Se   12.78381000   11.84687000    4.98622000      0.169680   -0.08526300    0.24490300
Se   14.60405000   14.25080000   13.28755000      0.227450   -0.21079900    1.00309000
Se    9.87944000   16.45129000    5.63142000      0.262030   -0.36100000   -0.31404400
Se   14.09310000   19.84038000   17.79670000     -0.767498    0.07013000    0.57185400
Se   20.50912000    1.29455000    5.26020000     -0.891149    0.02558700   -0.31317500
Se   18.50971000    0.63381000   17.64842000      0.469602    0.09590000    0.45555300
Se   17.40922000    4.67237000    5.92669000      2.032643   -1.34364100    0.36738900
Se   18.02549000    6.90810000   16.30010000      0.504965    0.28415900   -0.01752200
Se   20.18361000   10.63533000    4.48677000     -0.075085    0.09624300   -0.20026300
Se   16.84320000   13.18409000   12.72120000     -0.135932    0.07404700    0.21080000
Se   16.95663000   18.90072000    5.60860000      0.284986    0.02681200    0.08968200
Se   17.52720000   22.65464000   13.73693000      0.171657   -1.03983700    0.18134000
Se    3.21213000    7.06885000    7.29323000      0.045592    1.05410200   -0.48232200
Se    3.06717000    4.71426000   13.59756000     -1.039961   -2.30339800    0.67288000
Se    3.09763000    9.34201000    4.02845000      0.046893   -0.28118300    0.37611800
Se    5.23941000   12.02923000   15.44571000      0.969091   -0.86963600   -0.33367900
Se    5.42277000   13.39264000    6.67421000     -1.241798   -0.04853100    0.43442700
Se    4.05797000   17.90271000   18.04077000     -0.732348    0.06189800   -0.33658700
Se    1.80587000   21.58514000    5.79795000      0.249562   -0.11070000   -0.06711700
Se    5.08356000   22.41266000   14.30182000     -0.186445    1.37588700    0.34966200
Se   10.63783000    1.99504000    6.50714000      0.428800    1.24016800   -0.13136400
Se    9.22787000    3.56516000   15.71555000      0.055669   -0.07662600   -0.08465700
Se   10.56951000   10.23190000    6.59061000      0.859492    0.36850100   -1.01438200
Se    9.28776000   11.31100000   14.75399000     -0.239488   -0.39135200    0.05217200
Se    8.51353000   15.09351000    9.26432000     -1.253971   -1.13708900    0.78161000
Se   12.39437000   18.10423000   16.18901000      0.279878    0.32739600    0.26616300
Se   10.01695000   20.62610000    3.93675000      0.434704   -0.84058700    0.54596300
Se    8.43935000   20.85987000   18.60541000      0.034799    0.14284000   -1.16893900
Se   13.89032000    4.42676000    5.34263000      1.043571   -0.03744000    0.23106000
Se   18.75144000    3.13064000   15.01417000     -0.959733   -0.40195700   -0.27915500
Se   15.42630000    9.59616000    6.37540000      0.055877    0.19226900    0.80143900
Se   18.07125000    9.84385000   12.60117000      0.281574   -0.16507600    0.22712800
Se   17.75825000   11.98673000    5.71454000     -0.119107    0.02139300    0.01424800
Se   16.93251000   18.58028000   16.16780000     -0.246225    0.48093900   -0.45121700
Se   15.99708000    0.65383000    4.84069000      0.378618    1.05657000    0.11516200
Se   18.93988000    3.45785000   12.69018000     -0.460478    0.14305500   -0.24119800
Se    0.23633000    3.94700000    7.58861000     -0.190107    0.56324100    0.01714300
Se   22.68046000    3.43709000   14.57714000     -0.319321    0.85197200   -0.43123500
Se   19.73725000   12.45955000    8.44752000     -0.751228    0.54692500    0.83002700
Se   22.66689000   11.75992000   15.86099000     -1.244772   -0.40165400    0.24218100
Se   21.69204000   13.22009000    7.13202000     -0.054292    0.59065300    0.07411600
Se   20.62448000   17.74462000   14.01611000      0.678536    0.75873500    0.40617400
Se   19.36552000   20.89353000    7.84486000      0.324128    0.00089900   -0.56612100
Se   22.06195000   21.04384000   18.12977000      0.048983    0.45131600   -0.17930700
Se    3.49550000    2.64105000    5.29963000     -0.014356    0.46207600    0.28720700
Se    6.29106000    1.17217000   16.75330000      1.037700   -0.41435600    0.79943200
Se   22.76600000    4.21281000    0.30141000      0.835311    0.46080600    0.36105000
Se    4.31485000    9.47733000   11.39640000      0.040572    0.40769000   -0.82638200
Se    0.82593000   12.33582000    2.87651000      0.689247    0.46164300   -1.00323000
Se    3.85937000   15.56045000   15.45168000     -0.781341   -0.75010400   -0.43731100
Se    4.40020000   16.00524000    1.84884000      0.195857    0.32594000   -0.27800200
Se    5.53107000   19.02606000   12.53955000      0.774845   -0.64724200    0.77923600
Se   10.70889000    0.85100000    2.71205000      0.698918   -0.13025900   -0.25542700
Se   11.53805000    1.46495000   14.16080000     -0.144608    1.75454600   -0.76835200
Se    9.68538000    8.91434000    3.00677000      0.976795    0.12269500   -0.92848400
Se    7.76597000    9.04578000   16.02822000     -0.099222   -0.34322500    0.29608400
Se    9.60307000   12.46335000    4.09864000     -0.486511   -0.38282200   -0.19350900
Se    9.56133000   12.35785000   11.61165000     -0.099503    0.37338700    0.53707200
Se    8.81351000   20.62007000    1.94658000     -0.317471   -0.42965200   -0.09757000
Se   11.58120000   19.16786000   14.24986000     -0.311450    0.21264000   -0.16138000
Se   18.17833000    1.52186000    6.99396000      0.919471   -0.40186300   -0.88357500
Se   14.69374000    1.97504000   13.38068000      0.223202    0.17675900   -0.70509800
Se   15.91360000    7.16363000    4.04609000      0.097050    0.41448200   -0.57693800
Se   15.11430000    5.03542000   15.22388000     -0.950957   -0.88120000    0.38643000
Se   14.78305000   12.34969000    2.48107000      1.086900    1.38686500   -0.07045100
Se   17.72381000   17.14213000   13.83997000     -0.978115   -0.20319400    0.35270000
Se   15.58450000   15.57751000    4.10802000     -0.598724    0.68223900    0.51323500
Se   16.02307000   20.28057000   14.35410000      0.538611    0.00567900   -0.08178400
Se   22.70115000   22.72901000    5.65423000     -0.145010    0.21615800   -0.18366300
Se   20.60927000    0.17926000   12.28176000      0.535358    0.06158100    1.48691800
Se   21.07939000    4.72952000    4.38420000      0.189426   -0.02897700    0.44140800
Se   20.44783000    8.78456000   13.87114000      0.173431    0.42860500    0.61556600
Se    0.83586000   13.08728000    5.85285000      1.090886   -0.14456700   -0.07137500
Se   21.56851000   14.08106000   16.05101000      0.285433   -0.22028100    0.13717500
Se   22.08849000   19.07092000    4.72113000     -1.072619   -0.74871100    0.68149100
Se   21.54490000   19.27464000   10.23803000     -0.703238    0.61566700   -0.70884000
Se    0.23977000    5.03514000    5.46841000     -0.040500   -0.12247000   -0.35141100
Se   21.77006000    5.63052000   14.18337000     -0.412599   -0.07167800    0.67288800
Se   21.84284000    9.74391000    2.94153000     -0.024012    1.04907900   -0.20497400
Se    1.16874000   11.39852000   12.52071000     -0.165916   -1.23474500    0.33994300
Se    1.13088000   14.29306000    1.13067000      0.090922   -0.63526200    1.03318800
Se    1.37097000   20.81828000   13.02164000     -0.215089    0.21943300   -0.87393300
Se    4.43983000    0.12316000    3.44782000     -0.438033    0.20850300    0.46362800
Se    3.76799000   19.29930000   14.21845000     -0.332765    0.12645600    0.21117100
Se    9.70620000    6.77244000    8.01762000     -0.220788   -1.58545800   -0.48238800
Se    6.58516000    4.86524000   13.00293000      0.439181   -1.54457900    0.84971800
Se    5.94452000    6.78424000    3.82121000      0.014533   -0.20352500    0.57902300
Se    7.53046000   10.77672000   12.57817000      0.604624   -0.35094700   -0.20178200
Se    7.59779000   17.35758000    3.23165000      0.076669   -0.02930300    0.60755600
Se   11.85754000   14.44476000   13.97776000     -0.039889   -0.00163400   -1.16410300
Se    7.05047000   21.18122000    6.82956000      0.729118   -0.63751500    0.19726200
Se    8.04506000   22.08393000   14.02655000     -0.279640   -0.06067400    0.19727500
Se   12.78958000    2.25582000    3.55150000     -0.151998   -0.23904400   -0.53712900
Se   10.25791000    2.66652000   12.21437000     -0.499817   -0.10654700    0.82247300
Se   14.04138000   10.34461000    3.29677000     -1.306072   -0.80564300    1.15081700
Se   12.50704000    9.57865000   13.06699000     -0.359008   -0.58551700   -0.13524300
Se   12.15549000   15.12945000    2.97232000     -0.039512    0.25452100   -0.32369600
Se   14.67188000   18.38777000   12.16713000      0.317785   -0.81670900    1.10152900
Se   13.69392000   18.76846000    2.43127000     -0.087193    0.20434400   -1.12650100
Se   13.51220000   22.29086000   15.30593000     -0.162836    0.16996800    0.23756200
Se   17.09957000    5.40663000    0.98505000      0.010231    0.01219900   -0.24371000
Se   16.42253000    6.18799000   13.72896000      0.458409    0.76324400   -1.34375900
Se   17.68279000    8.92279000    3.93346000     -0.138645   -0.46365200    0.03009200
Se   20.33039000   12.89446000   12.80409000      0.442503    0.27793800   -0.25027600
Se   22.14779000   15.62848000    3.94810000     -0.920580    0.64076900   -0.00312300
Se   19.32286000   15.89650000   11.16912000     -1.038420   -0.47469600   -1.02076200
Se   19.60552000   21.67975000    3.68820000      0.211407   -0.62106700    0.27619800
Se   15.93703000    0.35597000   10.97473000      0.365700   -0.00829600    0.20627600
