384
23.00800000 23.00800000 19.32000000
Ge    5.65762000    5.28599000   10.71230000     -0.279735    0.37288300   -0.17629900
Ge    5.14554000    6.22489000    1.19085000      0.219624    0.06942000    0.57535900
Ge    1.75241000   11.71771000    7.91221000      0.227291    0.09940700    0.45605900
Ge    6.04820000   11.59959000   18.19457000     -0.647532    0.65500300   -0.43911300
Ge    4.23236000   14.88080000    9.72555000     -0.073368   -0.02945800   -1.05486700
Ge    8.09824000   17.70407000    0.80335000      1.210062    0.58156300    0.65082100
Ge    9.29094000   19.96226000   10.02808000      0.569092   -0.34349100    0.27449100
Ge    4.88388000    2.74176000    0.05402000     -0.990753    0.30908000   -0.23347100
Ge    9.18467000    5.11158000   11.55030000     -0.318638    0.07468200   -0.35787500
Ge   10.96595000    5.52120000    1.13556000     -1.304047   -0.66084700    0.43502300
Ge   10.95784000   11.78292000    9.48479000     -0.533458    0.25551100    0.42179700
Ge   11.22479000   12.19434000   17.89207000      0.739049   -0.58395900   -0.05238100
Ge    9.76219000   16.44267000    7.85749000     -0.137795    0.68682900    0.38610700
Ge   12.26179000   15.15162000    0.02673000      0.170581    0.46862700    0.23093400
Ge   10.66611000    1.58601000    9.22444000      0.426191    0.54028700    0.37930800
Ge   15.91146000   21.17604000    0.49764000      0.358589   -0.37340700   -0.60378100
Ge   18.92642000    5.39481000   10.11046000      0.728401    0.95873600    0.39326000
Ge   19.42402000    9.48249000   16.91828000     -0.206116   -0.17010900   -0.37365700
Ge   21.14226000   13.81715000   10.70991000      1.145984    1.56466500    0.85855600
Ge   17.21292000   11.20827000   18.82870000     -1.682461   -0.05859800   -0.67320500
Ge   14.07342000   16.92153000    8.39971000     -0.997358    0.19842600   -0.79183800
Ge   17.99272000   14.50299000    1.43459000      0.189214    0.66002200   -0.32171900
Ge   19.72967000    0.78862000    9.39713000     -0.933140   -0.06114400    0.11534600
Ge   18.04034000    2.75907000    1.09997000     -0.043869    0.04924400   -0.79903000
Ge   22.54860000    6.00769000    8.83631000     -0.132971   -0.05483000    0.69087000
Ge   20.50753000    4.17606000    0.48905000      0.073288   -0.78079700   -0.37139000
Ge    1.24676000   10.37304000   10.39671000     -0.691705    0.28621000   -0.10431000
Ge    1.31896000   11.54562000   18.79497000     -1.627056    0.02271300    0.04959500
Ge   22.44630000   15.12510000    8.17512000      0.346047    0.31557300    0.08239400
Ge    2.08810000   16.05857000   17.15327000     -1.327661   -0.75607400   -0.04027800
Ge   20.00005000   21.27251000   10.96422000      0.498926   -0.34558200   -0.63395800
Ge    2.00460000   21.27009000    0.09082000     -0.977765    1.20154000    0.46404000
Ge    6.36350000    8.76022000    8.62706000     -0.886504    0.86315400   -1.36749100
Ge    0.80408000    6.80271000    0.22334000      0.297471    0.35856900   -0.43664700
Ge    0.29563000    8.19615000    5.09250000     -0.306783    0.01153300    0.40315300
Ge    4.09185000   13.63486000   16.37024000      0.444522   -1.03027400    1.52806300
Ge    3.86716000   18.50956000    2.72132000     -0.413214   -0.35866900   -0.14191400
Ge    1.19496000   19.05556000   18.26781000      0.058668    0.03898000   -0.90514400
Ge    5.14329000   19.46761000    9.74703000     -0.141157   -0.18610600    0.16922600
Ge    3.34927000   22.88122000   17.11340000      0.423730    0.54343000    0.81946400
Ge    9.09873000    4.12873000    6.87980000     -0.045601    0.09270100    0.43714100
Ge    8.50113000    4.69693000   17.88217000     -0.174742   -0.45535900    0.04429000
Ge    7.17736000   12.48088000    3.62274000     -0.494961   -0.40890500    0.78220800
Ge    7.93625000    7.32533000    0.81471000     -0.125521    0.24216900    0.82521400
Ge    6.34543000   17.02510000    6.82597000     -0.192848    0.26122100    0.17298100
Ge    8.82727000   15.74334000   17.49412000      0.182715   -0.39105200   -0.00270000
Ge    9.98521000   22.81320000    5.24844000      0.274348   -0.29845000   -0.23874400
Ge   11.25166000   22.08518000   14.20546000     -0.326428    0.20384600   -0.68709700
Ge   12.99429000    6.41513000    9.08903000      0.539082   -0.52703600    0.04529100
Ge   14.28198000    6.88875000   16.48314000      0.177911    0.83738100    0.17280700
Ge   12.65981000    9.16747000    7.54020000      1.071693    0.70746600    0.78104200
Ge   15.45783000   13.25091000   15.69019000     -0.392414   -0.03471400    1.19598700
Ge   13.31633000   17.16344000    4.64819000     -1.608580    0.18523300    0.65517700
Ge   14.42455000   17.62421000    0.49718000      0.623863   -0.44327600   -0.75664900
Ge   13.42378000   22.18853000    8.30107000      1.282893    0.11791500   -0.39706800
Ge   16.86270000    1.49695000   15.02303000     -0.212834   -1.55802800   -1.15788600
Ge   19.97667000    4.03710000    7.03848000     -0.852453    0.48243700   -0.11753400
Ge   20.66315000    5.67733000   16.33000000     -0.376400    0.03601400    1.27177900
Ge   16.74795000   10.80092000    7.86428000      0.571815    0.04169000    1.99187900
Ge   19.89854000   13.39331000   17.75051000      0.636359    0.43506300   -0.62450900
Ge   18.34512000   16.39517000    5.41766000      0.956878    0.62122900   -0.22562100
Ge   18.87312000   20.41404000   17.07420000      1.438853   -1.75826800   -0.12991300
Ge   22.19261000    0.99290000    6.59202000     -0.160752    0.38243900    0.21110200
Ge   19.52818000   21.65971000    0.36015000      1.308213   -0.19042300   -1.00957000
Ge    5.25487000    3.22505000    6.89797000     -0.533188   -0.06664600    0.36336300
Ge    3.33313000    5.11591000   16.39742000     -0.233164    0.04354300   -0.64470400
Ge    2.92485000    6.16182000    4.70972000      0.375835    0.54965700    0.10294900
Ge    3.32630000    8.84260000   14.19568000     -0.065649   -0.46129400   -0.23472400
Ge    1.61149000   15.34485000    3.54965000      0.038252    0.04501700    0.70584500
Ge   23.00213000   18.41916000   14.05958000     -0.245288    0.06661900    0.75702400
Ge    1.83892000    1.48032000    7.88875000      1.148518    0.17128100    0.30646300
Ge    5.10105000   17.19805000   15.72417000     -0.349005    0.59882600   -0.04568400
Ge    9.45721000    2.97379000    2.33297000      0.284577   -0.22996600   -0.24265800
Ge    9.16606000    1.47708000   15.98481000      1.837028   -0.21910600   -0.80057300
Ge    8.59623000    9.08360000    5.40588000      0.325618   -0.18160700   -0.33066000
Ge    9.60728000    8.19918000   14.13073000     -0.497068   -0.00518600   -0.89599700
Ge   11.34528000   14.19884000    5.46139000     -0.448235    0.15438800   -0.36158600
Ge   11.17311000   11.75133000   14.34225000      0.303722   -0.06056300    0.23596900
Ge    6.23315000   20.87917000    2.53702000     -0.335879    0.49734500   -0.11590900
Ge   10.38061000   18.68911000   16.66729000     -0.776955    0.10515600    0.25240600
Ge   14.11722000    1.66452000    5.73306000     -0.434097    0.62792900   -0.20237600
Ge   11.41438000    4.55551000   14.86921000     -0.590037   -0.19986100   -0.40002900
Ge   15.34326000    6.55252000    6.70430000      0.349541   -0.21059700   -0.71701200
Ge   14.64615000    9.37413000   14.45446000     -0.668651    0.24276900   -0.10768500
Ge   14.89922000   13.08299000    4.80496000      0.234290    0.45864900    1.13344400
Ge   15.16478000   16.82579000   14.56603000      0.620355   -0.30796000    0.23006700
Ge   11.24558000   17.63760000    2.56769000     -0.022300   -0.01429000    0.08943700
Ge   11.56228000   21.75295000   16.87183000     -0.547869    0.21735600    1.16264800
Ge   18.17609000    6.16844000    4.16605000      0.002287   -0.80468400   -0.63849000
Ge   21.08599000    2.64453000   12.69148000      0.440164    0.41794900   -0.20851600
Ge   19.82764000    8.65389000    6.40402000     -0.542194    0.06933300   -0.39162700
Ge   18.89483000   11.56702000   14.28161000     -0.805311   -0.67638000    0.46571700
Ge   21.82619000   15.31717000    1.34673000     -0.061368    3.07384100    1.66837800
Ge   18.43211000   14.95762000   13.06979000      0.468685    0.33213300    0.22276800
Ge   19.63350000   20.28943000    5.31910000      0.083005   -0.69512500    0.18843400
Ge   22.69174000   20.59677000   15.70995000      0.291057   -0.07136800   -0.61403300
Ge    5.17410000    2.75328000    3.58930000     -0.384154   -0.11893200    0.20560800
Ge    5.20778000    2.50368000   14.94279000      0.057310    0.84215300    0.11200600
Ge    5.04328000    9.17298000    4.25096000     -0.457268    2.33270500    0.20612900
Ge    5.64865000    8.70375000   12.30770000      0.323364   -0.42332400    0.03610000
Ge    6.44071000   14.96555000    2.37920000     -0.572806   -0.02984600   -0.01791600
Ge    3.23244000   13.92572000   12.35330000     -0.260698    0.08800300    0.02163900
Ge    4.94015000   22.54453000    5.83198000      0.151076    0.87148700    0.61183000
Ge    7.41918000   20.51994000   12.38972000      0.825013   -0.09253600    0.34243200
Ge   11.46732000    3.91890000    4.88045000      1.098823    1.37753800   -0.99832600
Ge    7.20766000    2.30752000   12.72679000      0.956537   -0.70867300    0.99628400
Ge   11.61286000    9.87545000    0.89031000      0.869733   -0.20456200   -0.73609500
Ge   12.99513000    7.12860000   13.54955000     -0.866612    0.10670300    0.01127600
Ge    9.37015000   13.48575000    1.56750000      1.205322    1.29407800    1.02354400
Ge    9.14876000   15.17362000   11.92613000      0.063118   -0.05948500   -0.29836500
Ge   12.36761000   20.42268000    1.29131000     -0.801583    1.01600200    0.43891600
Ge   12.51495000   18.92212000   11.28086000     -0.262554    0.70600100    0.20650300
Ge   21.79805000    0.77577000   17.82553000      0.042020   -0.32187400   -0.53321900
Ge   14.56338000    5.40031000   11.85106000     -0.458961   -0.54111000   -0.66475700
Ge   17.78355000    8.33917000    1.07697000      0.569687   -0.58959900    0.28260600
Ge   15.64873000    9.17893000   10.08742000     -0.035106   -0.69771000   -0.70958100
Ge   18.29819000   11.45939000    3.10246000     -1.025029    0.05065400   -0.13061700
Ge   18.89828000   14.81648000    8.38518000      0.810329    0.91480500   -0.06218100
Ge   17.89742000   17.88076000    2.85304000     -0.016432    0.31557100   -0.10377400
Ge   15.93102000   20.39654000   11.39241000     -1.070471    0.59889100   -0.29094500
Ge    0.16222000    1.28375000    1.88082000      0.329969   -0.93258700   -0.85939400
Ge    0.19478000   22.93435000   11.85583000      0.497158    0.09646100   -0.01547100
Ge   20.94821000    6.54285000    3.66001000     -0.020533    1.08667400   -0.37901200
Ge   22.43592000    9.44689000   12.66572000     -0.516989    0.89258200   -0.20188900
Ge   20.93883000   13.31353000    4.02569000      0.140420    0.58215200    0.56560600
Ge    1.20461000   16.98549000   10.47949000      0.430796    0.07190000   -2.25549500
Ge    1.49501000   20.29476000    3.63241000     -0.267871   -0.27841100   -0.48173000
Ge   20.96192000   17.45867000   12.08066000     -0.411302   -0.14872100   -0.55926500
Se    1.26003000    1.14194000   18.36740000     -0.486444    0.26004900    0.85716900
Se    1.31859000    2.90592000   11.60056000     -0.228630    0.66799200    0.77993700
Se    0.77146000    6.97833000    2.66690000     -0.253699   -0.30401500    0.24068600
Se    0.59618000    7.52040000   12.53972000      0.563557   -1.06417200    0.02630700
Se    3.42611000   11.05760000    0.36514000      1.647685   -0.35800000    0.84561300
Se    1.41096000   13.57888000    9.56463000      0.258039    0.20169100   -0.11048100
Se    1.24664000   17.60722000    2.32812000      0.226655    0.67125000   -0.09693400
Se    1.25324000   19.53908000   10.19203000     -0.798320   -0.06390000   -0.47964100
Se    6.86044000    2.21236000    1.33987000      0.866085   -0.85366900    0.55774000
Se    7.09880000    1.62173000   10.51658000     -0.147924    0.05139100   -1.66549300
Se    7.47592000    4.82367000    1.35235000     -0.134491    0.61424400   -0.18895400
Se   10.64624000    7.06602000   12.00455000     -0.221024    0.40021600    0.69080400
Se    8.03138000   11.65446000    1.00091000     -0.458869   -1.92986600   -0.63132500
Se    5.55499000   14.19852000   12.91004000      0.774170   -0.10780200   -0.05601300
Se    3.97955000   20.08421000    0.78885000      1.255285   -0.18564100    0.71995600
Se    9.02779000   18.39228000   12.07067000     -0.350882    0.93432400   -0.34095600
Se   13.93552000    3.26053000    0.66298000      0.395684   -0.94809200   -0.43817400
Se   13.08929000    1.02337000   10.18868000     -0.986022    0.20770300    0.18009600
Se   10.03518000    7.17092000   18.93283000      0.663566    0.00813500   -0.40373700
Se    9.82269000    9.43191000    9.13132000      0.075298    0.19699500   -0.57153200
Se   11.78171000   12.54701000    1.02939000      0.161223   -0.57906300   -0.64922000
Se   13.23558000   11.35950000   10.02225000      0.477450    0.42095100    0.02119600
Se   15.52298000   15.13901000    1.67354000      0.000075   -0.24121700    0.18422700
Se   11.58190000   17.76298000    8.95346000      0.516179   -0.55181900   -0.39007200
Se   16.70481000    3.83857000    2.74175000     -0.061100    0.74328600    0.08658700
Se   15.84702000    3.10720000   11.28921000      0.470522    1.01650300   -1.35571900
Se   16.89163000    7.57714000   17.91159000     -0.021633   -0.60723700   -0.27956500
Se   20.29235000    7.07144000   11.68673000     -0.536865   -0.19972500   -0.30422000
Se   19.19035000   10.63516000    0.56369000      0.592046   -0.45855300    0.45215400
Se   17.04683000   15.35857000    7.11615000     -1.577547   -0.38044000    0.33785200
Se   19.45719000   17.07199000    0.93926000      0.419494   -1.33029400   -0.42485500
Se   18.11109000   19.35440000   11.13373000      0.283592   -0.52591000   -0.06684900
Se    3.70185000    4.32539000    1.95560000      0.329234   -0.47707100   -0.10186400
Se    3.78210000    6.60806000   12.27847000     -0.144635   -0.37021900   -0.01346500
Se    5.66317000   10.55687000    2.33961000      0.193005    0.01622400    0.58729100
Se    5.39018000   12.78059000   10.84953000     -0.338741    0.29459700   -0.04430400
Se    4.52455000   15.60108000    4.04577000     -0.419895   -0.01217400   -0.65176900
Se    3.55686000   16.77090000   11.21482000     -0.109989   -0.20033500    0.33589700
Se    3.80549000    0.59192000    1.00701000     -0.511799   -0.06874100   -0.24410900
Se    7.16632000   21.34908000   10.04440000     -0.555739   -0.06468800    0.38981500
Se   10.45995000    6.57266000    3.61834000      0.414194   -0.53184200   -0.63832500
Se    7.38767000    3.46885000    8.80228000     -0.050084   -0.10826300    0.61256600
Se   11.36088000    9.68214000   17.40003000     -0.098528    0.57774400    0.63382100
Se    7.15961000   11.08401000    9.66966000      0.304375   -0.48022000   -0.54093800
Se   10.47945000   17.28773000   19.11156000      0.222423   -0.11367300    0.93555200
Se   11.48186000   14.16377000   11.34407000     -0.323163    0.68409500   -0.24199100
Se   13.94968000   22.63870000    1.23425000      0.003941   -0.00916100    0.51521200
Se   11.67093000   21.40055000   11.75845000      0.082127   -0.07577600   -0.03985400
Se   13.28091000    5.32020000    1.46312000      1.100314    0.98090600    0.29869900
Se   17.64195000    7.02467000   11.72798000      0.491986    0.09763600   -0.65824900
Se   15.69848000    9.61167000    1.00432000     -0.611483    0.71099400   -0.77241500
Se   15.69951000   10.16576000   12.24663000      0.342100    0.42695800    1.20809000
Se   18.09356000   14.01865000    3.97940000      1.022268   -0.34625100   -0.06173300
Se   14.49756000   13.83830000   10.29470000     -0.814363    0.02015500   -0.75751700
Se   17.83302000   22.19277000    1.74781000     -2.442442    1.36594700    1.42236800
Se   13.98574000   19.76133000    9.21650000      0.772428    0.08704100    1.06773900
Se   20.88024000    1.14519000    0.86352000     -0.020429   -0.03462800    0.42697800
Se   21.72824000    3.82693000   10.57854000      0.329850   -0.52251300    0.25059600
Se   19.98765000    6.79807000    0.83259000      0.129232   -0.73616000    0.50721700
Se   21.58743000    9.92332000   10.41498000      0.542483    0.40800700    0.66174400
Se   21.64568000   13.38465000    0.38138000     -1.250856   -2.57663900   -1.47670200
Se    0.18296000   16.19137000   12.37901000     -1.151246   -0.54765200    1.88731200
Se   23.00122000   21.49643000    1.82512000      1.058635    0.43656800    0.27155900
Se   19.33225000   21.18855000   14.63802000      0.298748   -0.81751300    0.20579600
Se    3.88568000    5.27564000    8.42515000      0.148619    0.29254600   -0.09823700
Se    1.02568000    6.74124000   16.02070000      0.199146   -0.54593600    0.67113600
Se    4.20618000   11.08300000    8.86429000     -0.284389   -0.20515900   -0.13404800
Se    3.63825000    9.37788000   17.99996000      0.188242   -0.36251000   -0.49181400
Se    4.13831000   18.39629000    7.42710000      0.213854    0.75565900   -0.51031200
Se   22.61403000   17.63791000   16.55702000      1.309029   -0.00557800   -0.00472400
Se    3.27266000   22.08093000   11.92352000     -0.201609   -0.00175500    0.32068300
Se    7.10088000   21.95323000   16.87065000      1.105653   -0.16816900    0.72974000
Se    7.23053000    3.81072000    5.26514000     -0.616707   -0.13200500   -0.48846900
Se    5.89290000    4.23179000   17.37202000      0.128345   -0.01969600    0.04545600
Se    6.75300000   10.57819000    5.86897000     -0.446611   -0.01277600   -0.49585100
Se    4.78297000    7.02684000   15.51183000     -0.339848    0.54017900    0.21112600
Se    6.38909000   16.43056000    9.36140000     -1.143930    0.99940800    0.50830900
Se    6.77400000   16.71763000   18.57054000     -1.092558   -0.18303600   -0.76969800
Se    8.48322000   18.89982000    7.98248000     -0.145035   -1.44417300   -0.72932600
Se    7.30816000   22.54667000    1.09103000      0.166701    0.31743400    0.10850600
Se   13.80897000    3.23713000    9.46006000      0.548873   -0.74382900    0.04955800
Se   12.52955000    5.12032000   17.13333000      0.290151   -1.03641700    0.64035900
Se   13.32259000    8.33730000   10.54132000     -0.611506   -0.20007100   -0.06519700
Se   13.31723000   11.86686000   16.20144000      0.478080   -0.31881800   -0.72429500
Se   13.49604000   15.03093000    6.81177000     -0.256143   -0.04634900   -0.15282900
Se   13.56868000   15.24325000   16.94921000      0.761102   -0.05816200    0.22136800
Se   12.53675000   21.86853000    5.41862000      0.276960   -0.06668300    0.49581400
Se   17.09878000   21.84277000   17.18931000     -2.222805    1.33452100    0.97606400
Se   18.37384000    3.20754000    9.31087000      0.316590   -0.13487100   -0.60121400
Se   20.19917000    3.18432000   17.31334000      0.140309    0.91843900    0.83477700
Se   17.88500000    8.69979000    8.20975000      0.680341    0.29676100    0.03355600
Se   16.81614000   10.65078000   16.44998000      0.580338   -0.27982900    0.21340400
Se   15.34294000   16.48660000   10.36576000     -0.070023   -0.49877300   -0.07737200
Se   18.12577000   15.25386000   15.70472000      0.091089   -0.11102200    0.30468000
Se   17.73806000   19.12139000    8.78611000      0.402953   -0.00882800   -0.69739100
Se   19.77879000   19.69525000    2.46542000      0.443713   -0.39536500   -0.01261500
Se    4.26758000    0.67228000    8.11640000     -0.058651   -0.38260200   -0.75432000
Se    0.66821000    4.56198000   17.12146000      0.028749    0.25445200   -0.50169400
Se    7.31602000    7.33836000   10.23340000     -0.161215   -1.08531600    1.96935700
Se    3.62993000    6.57766000   18.46273000     -0.366252   -0.11525500    0.57025000
Se    4.07552000   15.18790000    6.91002000     -0.874965    0.59723600    0.56576400
Se    5.05836000   14.22817000   18.64155000     -0.029033   -0.84841200   -1.33257500
Se    2.95627000   20.94391000    9.50694000      0.763548    0.10972800   -0.23674400
Se   22.94523000   17.23998000    0.14117000      0.196100   -0.37176000    0.73588000
Se    9.73436000   22.53237000    8.24862000      0.242328   -0.20714600   -0.04543900
Se   10.46521000    2.79665000   19.30267000     -0.118929    0.94668800    0.07691000
Se   11.25495000    4.72134000    9.72458000      0.115372    0.04773500   -0.28990400
Se    6.87381000    8.69572000   18.35466000     -1.127966   -0.42182600    1.99452500
Se   10.58958000   13.71668000    7.98045000      0.074873   -0.17824800    0.45067800
Se    8.77430000   12.45987000   18.12102000     -0.857765    0.45013600   -0.44538700
Se   11.46507000   20.80664000    7.96420000     -1.049784    0.29241100   -0.15681500
Se   11.29599000   14.60355000   16.86706000     -0.113771   -0.47580400   -0.10400500
Se   16.86664000   22.44546000    8.74303000     -0.030789    0.35068100   -0.07583400
Se   15.87089000    3.16766000   18.43773000     -0.041199    0.18295000    0.20001600
Se   15.46277000    5.77260000    9.17834000     -0.348421   -0.16671000    0.49396700
Se   13.82967000    9.47998000   18.54988000     -1.125853   -0.17283000    0.72352300
Se   16.42685000   12.68764000    9.60641000      1.064870   -0.47741100    0.05851600
Se   16.77716000   13.50984000   18.49757000     -0.038153    0.22093500    0.37409300
Se   14.91363000   18.10223000    6.31782000      0.275868    0.32861000    0.46365100
Se   17.14933000   18.48304000    0.47801000     -1.119947    0.59671100   -0.22189000
Se   21.92845000   22.67521000    9.53805000      0.908285   -0.15977700   -0.39431900
Se   22.82687000   22.91802000   14.94743000     -0.165409    1.28374700   -0.39775800
Se   20.39944000    6.74278000    7.87710000     -0.454985   -1.62770400    0.32050100
Se   21.48050000    7.92646000   18.78649000      0.399257    0.15763100   -0.41383800
Se   21.96949000    9.82067000    7.02646000     -0.014631    0.35161800    0.02266700
Se   21.81342000   10.91212000   17.92134000     -0.310364    0.14791000   -1.20336100
Se   20.32309000   16.60921000    7.27252000     -0.262717   -0.99626000    0.08411500
Se   19.92671000   15.99071000   17.10166000     -0.635480   -0.36373200    0.04447800
Se    3.03252000    1.93269000   10.38720000     -0.457346    0.11039500   -0.86112100
Se    2.73409000    1.42950000   15.31677000      0.314887    0.27952800   -0.48036000
Se    0.43583000    8.14404000    7.99802000      1.123673    0.41556800   -0.57360300
Se    1.64155000    9.74475000   16.71087000      0.353095   -0.30304300   -0.10590800
Se    1.01545000   16.13094000    6.47177000     -0.426474    1.00509800    0.15242400
Se    1.81966000   12.85691000   16.93117000     -0.107650    1.35753500   -1.21547100
Se    0.12207000   18.57670000    6.39281000      0.717304   -1.05559200    0.28750200
Se    2.17310000   20.85841000   16.46754000     -0.531104   -0.99698000   -0.81037700
Se    7.29716000    0.74145000    6.32940000      0.083662    0.14286400   -0.50992500
Se   12.02004000    0.66297000   18.42593000      0.082756   -0.38143000   -0.06326000
Se    7.86067000    7.08611000    6.46868000      0.122576    0.14506100    0.35578800
Se    7.26838000    7.07053000   14.62506000      0.417288    0.56773200    0.10946800
Se    7.26022000   14.75224000    5.94017000      0.738131   -0.79726700   -0.10667600
Se    9.44903000   16.55583000   15.18477000     -0.705221    0.11930700   -0.43223800
Se    4.57782000   20.09108000    5.50421000     -0.057682   -0.98393900    0.64862400
Se    8.56591000   14.24143000   15.38763000     -0.412215    0.37508500    0.09843900
Se   14.90584000   22.18924000    3.96576000     -0.149118    0.22543300   -0.18281500
Se   15.10511000    1.21000000   16.46553000     -1.052686    0.48857900    1.11136800
Se   12.72863000    6.89861000    6.67613000     -0.519855   -0.20230600   -0.06429300
Se   11.09384000    7.14405000   15.63582000      0.303404    0.33416400    0.11334400
Se   12.72344000   11.70505000    4.88188000     -0.743328    0.72706500    0.76027000
Se   14.61415000   14.01855000   13.50420000     -0.464968    0.64306200   -0.56119000
Se    9.46315000   16.14726000    5.37546000      0.329691   -0.04789300    0.26294700
Se   13.80022000   19.89614000   18.75678000      0.323597   -0.06346600   -1.87048000
Se   19.88164000    1.40059000    5.10301000      1.335383   -0.21043300   -1.04019200
Se   18.51819000    0.69345000   17.73135000      0.207305    0.00648100   -0.17351100
Se   17.61122000    4.76503000    6.03150000      0.435405   -0.17280900    0.91377300
Se   18.39533000    7.28613000   15.99689000      0.012351   -0.26428200    0.30869700
Se   20.46366000   10.46560000    3.75190000      0.205456   -0.47215100    0.67238300
Se   16.77254000   13.19964000   12.86014000      0.429160   -0.13662100    0.04352700
Se   17.38698000   19.09753000    5.22339000      0.289418    0.36656200    0.79290300
Se   17.46978000   22.21603000   13.76813000     -0.114586    1.20100800    0.36305300
Se    3.24416000    7.39438000    7.47178000      0.380817   -1.06328200   -0.28096400
Se    3.04032000    4.31371000   13.69985000      0.259186    0.08825400   -0.51682100
Se    2.57867000    9.05001000    4.12703000      0.537568   -0.33985800    0.18721300
Se    5.31583000   11.83317000   15.45945000      0.237501   -0.14766700    0.48614700
Se    5.32422000   13.26471000    6.70559000      0.294841   -0.80852700   -0.00226800
Se    3.62273000   17.72993000   17.87396000      0.384772    0.37297600   -0.13514300
Se    2.12694000   21.42249000    5.76680000      0.174219    0.15163200    0.39925000
Se    4.80445000    0.10508000   14.75418000     -0.099241   -0.69423600   -0.64679500
Se   10.85475000    2.22407000    6.38601000     -0.222293   -0.84003500    1.22656400
Se    8.79351000    3.77465000   15.28618000      0.495144    0.62390700    0.94654100
Se   10.48939000   10.03487000    6.81797000     -0.757091    0.43263700    0.08487000
Se    8.41733000   10.69357000   14.55153000      1.230228    0.79850100   -0.06096800
Se    8.17533000   15.01569000    9.35852000      1.182496   -0.94258100   -0.24163200
Se   12.70296000   18.14399000   16.12918000      1.045217   -0.31258400    0.43780700
Se   10.03039000   20.13715000    3.75403000     -0.324003    0.02355200   -0.19535500
Se    9.05461000   20.99660000   18.22457000     -0.975273    0.26106100   -0.53275600
Se   14.16371000    4.46519000    5.45386000     -0.339646   -0.83964400   -0.28902300
Se   18.28991000    3.24447000   14.83508000      1.020136    1.57101200    0.40913000
Se   14.99082000   10.17876000    6.61028000     -2.253388   -1.03956400   -0.83776600
Se   18.18695000    9.66779000   12.67497000     -0.453318    0.66367000    0.46352300
Se   17.30558000   11.79871000    5.88875000      0.735515    1.01188500   -1.63896400
Se   16.65009000   19.10024000   16.12457000     -0.176176   -0.54985400    0.28223400
Se   16.33058000    0.81987000    4.94838000     -0.343482   -0.27679500   -0.25602900
Se   18.74496000    3.45568000   12.50629000     -0.252556   -0.43477500   -0.32760900
Se    0.62820000    4.46787000    7.25439000      0.069457   -0.74254600   -0.03500600
Se   22.31677000    3.72921000   14.83135000      0.695655   -1.90459900   -0.09942200
Se   19.96321000   12.70544000    9.04413000     -0.789094   -1.43483600   -1.98719000
Se   21.92202000   11.45597000   15.51852000      0.311357    0.87227700    1.05002900
Se   21.90382000   12.89088000    7.11283000     -0.036363    0.03268800   -0.87776500
Se   20.42660000   18.03566000   14.47530000      0.645350   -0.00780100   -1.06434900
Se   19.59984000   20.59216000    8.16663000     -0.137484   -0.23746000   -0.12451400
Se   21.66318000   20.99920000   17.80341000      0.261800    0.11078600    0.68759500
Se    3.06441000    2.94615000    5.27459000      0.716202    0.15483400    0.06351300
Se    7.22743000    1.40734000   17.22162000     -1.818424   -0.58261200    0.91874200
Se    0.20982000    4.43611000    0.54570000     -0.494772   -0.15644600   -0.21641200
Se    3.68155000    9.45919000   11.04704000      0.559004   -0.13145500   -0.83382800
Se    0.55812000   12.21802000    3.03341000      0.262981    0.66745500   -0.27616100
Se    3.21739000   15.20875000   14.84164000     -0.139500    1.28742300    0.02190600
Se    4.28942000   16.17776000    1.55971000     -0.206004   -0.27282300    0.35162400
Se    5.61215000   19.08255000   12.82989000     -0.635025   -0.81038400   -0.06869300
Se   10.92351000    0.68311000    2.86804000     -1.245505   -0.85776700   -0.10994400
Se   11.47974000    1.91031000   13.96585000      0.161648   -0.25489000   -0.37709000
Se   10.14994000    8.91054000    3.26294000     -0.603846    0.19478700    0.48532400
Se    7.55436000    9.12545000   16.23975000      0.335595   -0.82623700   -1.17491300
Se    9.64406000   12.19944000    3.98396000      0.030335    0.46402700   -0.32860300
Se    9.28132000   12.47944000   11.90606000      0.857414    0.15104000   -0.65052500
Se    8.80705000   19.94337000    1.53294000      0.329238    0.98431200    0.26029300
Se   11.56499000   19.32082000   14.49243000     -0.268984    0.41861200   -1.28065900
Se   18.67555000    1.18076000    7.01349000     -0.829962   -0.20016500    1.14534800
Se   15.06266000    1.92173000   12.98253000     -0.892734   -0.79006800    2.08656700
Se   15.91523000    7.28743000    3.84938000     -1.008464   -0.74293500    0.02800000
Se   14.29884000    4.63126000   15.53121000      0.227549   -0.26912000   -0.19557300
Se   15.27836000   12.15169000    2.63111000     -0.470563   -0.47984000   -0.92915100
Se   17.45843000   17.34831000   13.33822000     -0.505361   -0.67120700    0.33425600
Se   15.25928000   16.01904000    4.00099000      1.863536   -0.83485100   -0.52563200
Se   15.67756000   20.25229000   14.36013000     -0.537071   -0.16811700   -0.55713900
Se   22.82808000   22.07367000    5.37713000     -0.792700    0.54815200    0.01503500
Se   21.00396000    0.04384000   13.25433000      0.248339    0.21934700   -0.09723100
Se   20.93982000    4.20711000    3.99692000     -0.129567   -0.79001500   -0.01706900
Se   20.37221000    9.21115000   14.17603000      0.137250   -0.15503600    0.05699000
Se    1.36901000   12.61745000    5.17359000     -0.112403    0.33185400    1.60058500
Se   21.71768000   13.93717000   15.94146000     -0.419453   -0.74052900    0.20847200
Se   21.76826000   18.89569000    4.46595000     -0.254596    0.35848100    0.28188900
Se   21.19333000   18.94520000    9.99318000     -0.007795    0.37413600    1.16751800
Se    0.29540000    5.03136000    4.98765000      0.132112    0.42321600    0.06383600
Se   21.44527000    5.64261000   14.03129000     -0.540066    1.26387000   -0.94796100
Se   22.58791000   10.16413000    2.64387000     -0.573760   -1.54398300   -0.30952900
Se    1.46864000   10.83405000   12.92964000     -0.696383    0.67590400   -0.04109700
Se    1.33905000   14.11143000    1.39905000      0.605858    0.62016300   -0.62167400
Se    1.59477000   20.72829000   12.80234000     -0.002592    0.39435100    0.13071700
Se    4.56738000   22.96290000    3.26086000     -0.112374    0.22301700    0.13811000
Se    4.31341000   19.51390000   14.83243000      0.291721   -0.49660300   -0.09145400
Se    9.66886000    6.27162000    8.40167000     -0.137362   -0.06277000   -0.75407500
Se    6.83055000    4.62937000   13.03478000     -0.157517    1.42616600   -0.49376700
Se    5.75524000    7.10390000    4.00664000      0.372898   -2.23471400   -0.16043200
Se    7.78224000   10.61140000   12.18934000     -0.702455   -0.35101600   -0.57215300
Se    7.36238000   17.13166000    2.97216000      0.619002    0.16071200    0.45486800
Se   11.57026000   14.26285000   13.71674000      0.529505    0.02256100    0.15982300
Se    7.68181000   21.42921000    6.54641000     -0.431078   -0.52318800    0.02559700
Se    7.95033000   22.18097000   14.04416000     -0.115421   -0.16424700   -0.18365300
Se   12.54600000    2.25104000    3.13726000      0.954989    0.82006100    0.97704700
Se    9.98324000    2.77633000   12.25001000      0.194289   -0.88470800    0.25689600
Se   13.56256000   10.19351000    3.39765000      0.836447   -0.20849600   -1.29121800
Se   12.33535000    9.74524000   13.08389000      0.372175    0.27801300    0.55149700
Se   11.88606000   15.18701000    2.77476000     -0.034946    0.32332700    0.20005900
Se   14.76725000   18.33546000   12.55182000     -0.443434   -0.16869700    0.02681300
Se   13.86256000   18.81044000    2.52020000     -0.095862    0.14270900    1.19566400
Se   13.46654000   22.16687000   15.45454000      0.892373    0.23407100   -0.59072800
Se   16.98247000    5.36223000    0.69409000      0.015963   -0.43068700    0.41944800
Se   16.09957000    6.34291000   13.42595000      0.313529    0.27334400    0.74250900
Se   17.68323000    8.78265000    3.83658000      0.848243    1.05861700    0.01460600
Se   20.17076000   12.93264000   12.78770000      0.414599    0.59600300   -0.15209000
Se   21.75896000   15.88568000    3.76436000      0.225035   -1.15780600   -0.51395300
Se   19.02553000   15.77824000   10.66344000      0.686559   -0.01468600    0.63926100
Se   19.98782000   22.12872000    3.76997000     -0.138729    0.01892600   -0.06138000
Se   15.95469000   22.99278000   10.79074000      0.282850   -0.17714400   -0.18075800
