384
23.00800000 23.00800000 19.32000000
Ge    5.49869000    5.41437000   10.62835000     -0.325475   -0.68739500    0.36244400
Ge    5.53197000    6.35178000    1.72485000     -0.725336   -0.03146600   -0.18756700
Ge    1.62424000   11.71580000    7.86334000      0.047827   -0.12463900    0.31627800
Ge    5.86764000   11.84709000   18.15025000      0.475744   -0.15962300    0.13773700
Ge    4.17969000   14.99954000    9.41114000      0.056024    0.04606200    0.22412500
Ge    8.21716000   17.66320000    0.67894000     -1.002187   -0.02837200    0.57055900
Ge    9.32103000   19.88815000   10.32534000     -0.119190   -0.08976200   -0.65255800
Ge    4.45376000    3.10443000   19.21041000      0.447511   -0.06218600    0.46102400
Ge    9.24593000    5.16169000   11.21744000     -0.249761    0.26345900   -0.26121700
Ge   10.72949000    5.37602000    1.37834000      1.150875    0.61589000   -0.44102100
Ge   10.86087000   11.95732000    9.95513000      1.858395   -1.08085000   -2.47556900
Ge   11.57582000   12.35276000   17.95147000     -0.390627   -0.16344900   -0.48765000
Ge    9.77520000   16.48833000    7.84646000     -0.293495   -0.83306200   -0.51806500
Ge   12.83644000   15.45132000    0.15250000      0.239558   -0.37539000    0.45496000
Ge   10.77482000    1.92036000    9.58379000     -0.591304   -0.24047600   -0.81840800
Ge   15.99787000   21.28473000    0.51439000     -0.624290    2.42962300   -1.05988300
Ge   19.20986000    5.54005000   10.45750000     -0.450533   -0.47657400   -0.83356600
Ge   19.43054000    9.54227000   17.19254000     -0.028808   -0.74979800    0.18610200
Ge   21.40863000   14.22266000   10.81241000     -0.598750   -0.16834200    0.04457800
Ge   17.14485000   11.37890000   18.76168000      0.122111   -0.44446600    0.66787700
Ge   14.00707000   17.14795000    7.83115000      1.004613    0.01259000   -0.35817200
Ge   18.30867000   14.53305000    1.11036000     -0.865502   -2.12551400    0.87385700
Ge   19.64752000    0.66621000    9.67112000      0.468476    0.34208100    0.24826200
Ge   18.11464000    2.91035000    0.79564000     -0.093721   -0.34207800    0.02763400
Ge   22.82317000    6.15634000    8.74305000     -0.131169   -0.26312500   -0.19248700
Ge   20.68694000    3.72993000    0.70114000      0.376776    0.37841100    0.85554000
Ge    1.22687000   10.80690000   10.70227000      0.484019    0.11612800   -0.43378500
Ge    1.26624000   11.51063000   18.55337000     -0.506581    0.35416200    0.02967700
Ge   22.92049000   14.61743000    8.23975000     -0.722986    0.74228300   -0.22076500
Ge    1.23335000   15.69243000   16.81539000      1.753277    0.52458000    0.92472500
Ge   20.11620000   21.14445000   10.52720000      0.530502   -0.39901200    0.34150600
Ge    1.99698000   21.59523000    0.14368000      0.719328   -0.96247900    0.18729900
Ge    6.04014000    8.89539000    8.55847000      0.031667   -0.18479000    0.05471900
Ge    1.20220000    7.18676000    0.48632000     -1.057874   -0.22581900    0.02281200
Ge   22.76222000    8.29012000    5.59655000     -0.132988   -0.08231000   -0.37898000
Ge    3.87569000   13.35523000   15.88432000     -0.030910    0.14606800   -0.59617500
Ge    3.66364000   18.22579000    2.91886000      1.079494   -0.33108100   -0.04014400
Ge    1.11841000   18.98156000   17.88711000     -0.702108   -0.07708700    0.40142300
Ge    5.21823000   19.38963000    9.59507000     -0.614841   -0.22338500    0.90597600
Ge    3.55004000    0.12221000   17.13212000     -0.201216   -0.13018100   -0.65965000
Ge    8.63158000    4.10384000    6.76563000      0.230412   -1.01945300    0.03002200
Ge    8.51861000    4.16378000   18.19967000     -0.404555    0.16601100   -0.05541300
Ge    7.13192000   12.58095000    4.06068000      0.260272    0.84737600   -0.07563900
Ge    8.13208000    7.64338000    1.16666000      0.070516    0.04479700   -0.70945900
Ge    6.09017000   17.30932000    6.78700000      0.100727   -0.92822000    0.19167500
Ge    8.92465000   15.45660000   17.90701000     -0.334288   -0.66917400   -0.89607400
Ge    9.91487000   22.94833000    5.55682000     -0.018143    0.52641200    0.42140200
Ge   11.03594000   22.08824000   14.01443000      0.136374   -0.15938300   -0.06750400
Ge   12.66322000    6.37135000    9.28394000      1.632608    0.58894500   -1.04255400
Ge   14.62049000    6.92567000   16.75858000     -0.472494   -0.47791800   -0.25635400
Ge   12.63003000    9.27250000    8.27085000     -0.961110    0.53487800   -0.34380600
Ge   15.34985000   13.50100000   16.36691000      0.846705   -0.82934000   -1.08896800
Ge   12.96180000   16.84533000    4.85490000      1.466432    0.44070500    0.32214700
Ge   14.65997000   17.59047000    0.58520000     -1.058637    0.52438600    0.35473000
Ge   13.92634000   22.16184000    7.93465000     -0.473410    0.09904100    0.63806100
Ge   17.01492000    1.56531000   14.84388000     -0.735571   -0.97895900   -0.15099000
Ge   19.95574000    3.96069000    7.07019000     -0.208583    0.54635700   -0.60554800
Ge   20.68018000    5.58584000   16.75515000      0.653669    0.50686400   -0.42503900
Ge   16.34271000   11.07597000    7.63184000      0.431994   -0.19262900    0.23049900
Ge   20.07694000   13.80771000   17.61096000     -0.852301   -0.34266300    0.29428200
Ge   18.75085000   16.41124000    5.43018000     -0.476624    0.23803900   -0.02443200
Ge   19.66104000   19.83634000   16.94639000     -0.473271    0.03471300    0.40280300
Ge   22.54454000    1.22940000    5.80256000     -0.239963   -0.07150900   -0.09251000
Ge   19.54852000   21.74226000    0.16373000     -0.749817    0.76235200    0.55180500
Ge    5.18973000    3.36495000    6.87131000      0.824588    0.13137800    0.25113700
Ge    2.89859000    5.14527000   15.97472000      0.242313   -0.63122500   -0.02138300
Ge    3.16107000    6.28918000    4.89250000     -1.080784   -1.15805900   -0.45843300
Ge    3.37833000    8.99681000   14.58221000      0.548825    0.13990800   -0.53963800
Ge    1.51832000   15.15293000    4.08990000     -0.114990   -0.01473900   -0.22457900
Ge    0.11802000   18.36288000   13.77456000      0.116395    0.36212000   -0.56285800
Ge    2.00306000    1.62578000    7.49454000     -0.027122    0.13176100    0.15089600
Ge    4.86679000   17.05703000   15.95289000     -0.091078   -0.02362000   -0.13159300
Ge    9.78701000    2.73884000    2.06045000     -0.155708   -0.09515500    0.37224500
Ge    9.87934000    1.87588000   16.25301000     -0.605362    0.44260700    0.33600200
Ge    8.63049000    8.87251000    5.54618000      0.762638    0.94605200   -0.55291600
Ge    9.59691000    8.38926000   13.86916000     -0.810653    0.06753700    1.78833300
Ge   11.25416000   14.17378000    5.41832000     -0.291305   -0.80857800   -0.14261500
Ge   11.23285000   11.81348000   14.81601000      0.103340    0.33531700   -0.25753000
Ge    6.31921000   21.25583000    2.41575000     -0.237506   -0.51302100    0.50195900
Ge   10.48916000   18.38216000   16.74613000      0.075123   -0.22629800   -0.31782500
Ge   13.98466000    1.62532000    5.79971000      0.286446    0.34674500   -0.00048000
Ge   10.99622000    5.20214000   14.85213000      0.798020   -0.12730600    0.26493400
Ge   15.29958000    6.86869000    6.26183000     -0.441114   -0.13399900    0.64117700
Ge   14.22272000    9.43132000   14.62874000      0.242245    0.32387100    0.40872300
Ge   14.80000000   13.31654000    5.05167000      0.333413   -0.18241800   -0.75522100
Ge   15.39950000   16.23715000   15.06580000      0.440458    0.72459600   -1.00767900
Ge   11.21789000   17.72829000    2.75332000      1.128180   -0.31565600   -0.20537400
Ge   12.18555000   21.88245000   17.41443000      0.485153   -0.56174200   -0.43328100
Ge   17.77799000    5.71666000    4.08169000      1.278922    1.22817000    1.17261700
Ge   21.01003000    2.75991000   12.78050000     -0.651499   -0.71759200   -1.07457100
Ge   19.59075000    8.69060000    6.36071000      0.380252   -0.19918100    0.19171100
Ge   18.65304000   11.42565000   14.61937000      0.692756    1.15951700   -0.51990700
Ge   22.50518000   15.03849000    1.42794000     -0.107596    0.59397400   -1.04428900
Ge   18.68657000   15.14781000   13.05253000     -0.583829   -0.02022700    0.21134700
Ge   19.92924000   20.49262000    5.49892000     -0.611581   -0.00768900    0.28853100
Ge   22.77410000   20.44829000   15.41155000     -0.433504    1.62028800    0.12793500
Ge    4.61531000    2.62482000    3.28092000      0.836211    0.43076600    0.72139800
Ge    5.27962000    3.25548000   15.33076000      0.180446   -0.01180800   -0.17580900
Ge    4.66877000    9.57753000    4.31026000     -0.421945   -0.97831300    0.13380400
Ge    5.47327000    8.53308000   12.13206000     -0.101581   -0.14107000    0.21986400
Ge    6.17156000   14.86824000    2.01350000      0.006769    0.60078900    0.28902400
Ge    3.24344000   13.95067000   12.23182000      0.521383    0.58112400    0.36691900
Ge    4.58287000   22.59137000    5.65103000      0.070422    0.21634900    1.60877400
Ge    7.12780000   20.40653000   12.42855000      0.609775   -0.18676900    0.30603100
Ge   11.99080000    4.27913000    4.85302000     -1.010707   -0.58897300    0.68130900
Ge    7.63062000    2.00480000   13.02027000     -0.783581    0.32978500   -0.22037400
Ge   11.80891000    9.89199000    0.94458000     -0.067896    0.10541900   -0.18753400
Ge   13.36866000    7.15461000   13.46626000     -0.390513   -0.15983900    0.29139700
Ge    9.73123000   13.91027000    1.76375000     -0.604364   -1.26258200   -0.10636400
Ge    9.09659000   15.32208000   11.62331000     -0.660041    0.11225500    0.20842200
Ge   12.10392000   20.71178000    1.84971000      0.553486    0.27799600   -0.35056700
Ge   12.30338000   18.89733000   11.28427000      0.003852    0.00773800    0.29984900
Ge   21.73948000    0.72876000   17.97652000     -0.265088    0.14168200   -0.45483000
Ge   14.16033000    5.21243000   11.53488000      0.818149   -0.44661100   -0.02156000
Ge   17.90091000    8.28386000    1.15073000      0.450819   -0.10975300    0.16403600
Ge   15.89225000    8.54009000   10.17857000      0.016906   -0.40716700   -0.20521800
Ge   18.20032000   11.33318000    2.90793000     -0.386235   -0.51041400    0.43456600
Ge   19.09263000   14.88025000    8.09794000      1.263911    0.79868600    0.34340400
Ge   17.92545000   17.99634000    2.90796000      0.361130    0.19104400    0.16166500
Ge   15.57367000   20.17848000   10.95194000      2.280631    0.15370600    2.33378400
Ge    0.45223000    0.76261000    1.55790000     -0.776342    0.79600500    3.12701600
Ge    0.48605000    0.31980000   12.10981000     -0.428052   -0.65818200   -0.20211900
Ge   20.39572000    6.25043000    3.60435000      0.150850    0.16774900    0.58017100
Ge   22.42160000    9.41447000   12.91160000     -0.933782   -0.81686600   -0.34515600
Ge   20.68919000   13.41174000    4.39050000      0.758326   -0.62631500   -0.92636700
Ge    1.02832000   17.19223000    9.71339000      0.436173    0.44022800    0.89832700
Ge    1.95154000   20.09774000    3.41278000     -0.002947    1.27557100    0.42004700
Ge   20.83205000   16.99184000   12.26752000      0.356733    0.32987600    0.16536700
Se    1.17286000    0.93646000   18.71372000     -0.076513    0.77055900   -2.46601500
Se    1.22575000    3.16706000   11.92456000      0.172540   -0.03444900   -0.89919000
Se    0.59569000    6.79778000    2.86182000     -0.154937    1.14482800   -0.64052900
Se    0.28469000    7.14691000   12.67174000      0.109248    0.12646000    0.17923000
Se    3.96239000   10.85571000    0.69947000     -1.650224    0.12323400   -0.91200300
Se    1.66368000   13.63264000    9.71488000      0.188426   -0.36952500   -0.21009600
Se    1.21942000   17.78668000    2.81864000     -0.451013   -0.51869700   -0.28812900
Se    0.97003000   19.79143000    9.87251000      0.189891   -0.49605100    0.08312700
Se    6.74616000    2.21581000    1.51306000     -0.029882    0.08683600   -0.47313300
Se    6.80274000    1.63256000    9.88612000      0.430765    0.00571500    0.86148500
Se    7.51146000    4.85636000    1.62509000      0.065417    0.06894700   -0.10645100
Se   10.57994000    7.14004000   12.26432000      0.534550   -1.07607600   -1.54192700
Se    8.33972000   11.63992000    0.90083000      0.269100    0.12123800    0.57984800
Se    5.64578000   14.40034000   12.87822000     -0.188782    0.16696800    0.19165400
Se    4.08950000   19.96433000    1.08974000     -0.131288    0.20492500   -0.06079500
Se    9.01836000   18.26683000   12.15143000     -0.074972    0.41615500   -0.22829900
Se   13.66768000    3.22430000    0.69675000      0.069685    0.92870100    0.79521100
Se   12.89724000    0.91537000   10.28548000      0.541841   -0.40864000   -0.25496400
Se    9.93947000    6.76481000   18.75319000     -0.632173    0.01866900    1.04244400
Se    9.65536000    9.69812000    9.48645000     -0.293694    0.26062700   -1.04668700
Se   11.93230000   12.64996000    1.15094000      0.208119    0.34214100   -0.89481900
Se   13.17310000   11.57304000    9.78482000     -0.117746   -0.86678600    0.32821800
Se   15.44045000   14.94934000    1.77318000      0.251060    0.29273200   -0.13680300
Se   11.78663000   17.74395000    8.53476000     -0.808585    0.45828700    0.27681300
Se   16.84193000    4.08102000    2.78719000     -1.170071   -2.42069500   -1.11487800
Se   15.86907000    3.16328000   11.27773000     -0.995326   -0.38991900    0.80897600
Se   17.20032000    7.16825000   17.72933000     -0.652807   -0.08079100    0.11107600
Se   20.63117000    7.05448000   11.66643000     -0.020769    0.60425600   -0.27997900
Se   19.50988000   10.32975000    0.83747000     -0.974658    0.03690300   -0.92328400
Se   17.05969000   15.29366000    7.17956000     -0.154809    0.69050500   -0.84717300
Se   19.18255000   16.55282000    0.89119000      0.547266    2.31282200    0.06241200
Se   18.15756000   19.07441000   10.97900000     -0.976094    0.28253300   -0.57658100
Se    3.50478000    4.52992000    2.08024000      0.416828    0.04545300   -0.76526900
Se    3.54668000    6.53791000   12.12941000      0.382585   -0.15596800   -0.23693700
Se    5.45669000   10.74584000    2.33229000      1.346909    0.09187800    1.10244000
Se    5.32055000   12.80421000   11.10207000     -0.261506    0.45802300   -0.33566700
Se    4.23413000   15.42511000    3.76227000      0.192200   -0.09906700    0.03369400
Se    3.42532000   17.00090000   11.02880000     -0.494196   -0.84583800   -1.04705900
Se    3.98775000    0.56981000    0.75250000     -0.228867   -0.32415200   -0.26672000
Se    6.78131000   21.38323000   10.26845000      0.588933    0.10447500   -0.32819300
Se   10.36743000    6.26009000    3.65782000      0.259827    0.87178000    0.32394500
Se    7.43604000    3.80824000    9.21477000      0.193667   -0.17298000   -0.27297700
Se   11.23113000    9.82338000   17.52581000     -0.233177    0.67993700    0.29418700
Se    7.37959000   11.01348000    9.33573000      0.391373   -1.00158600    0.04911800
Se   10.66602000   17.34676000    0.38522000      0.542883   -0.20313500   -0.38730500
Se   11.40976000   14.57600000   11.17238000      0.708500   -0.02818800    0.05424500
Se   14.48370000   22.88490000    1.68323000     -1.420259    0.26954500   -1.53285700
Se   11.94233000   21.35547000   11.71242000     -0.310284    0.24495500    0.24992300
Se   13.33812000    5.84879000    1.14052000     -0.750574   -1.04300000    0.23563200
Se   17.42375000    7.00699000   11.63654000      0.324828    0.13310500    0.32516000
Se   15.60965000    9.25289000    0.73892000      0.385796    0.06606300    0.07848400
Se   15.61573000   10.40110000   12.72690000     -0.463894   -0.13865300   -0.18924800
Se   18.51295000   14.16500000    3.85084000     -1.026283    0.26089600   -0.19014600
Se   14.31758000   14.15583000    9.70880000      0.762277   -1.16473000    0.38249000
Se   17.57626000   22.31820000    1.94330000      1.242288    0.22960500   -0.05188800
Se   14.01319000   19.67529000    9.41100000     -1.268269   -0.36417500   -1.85952100
Se   20.81868000    0.89621000    1.24317000      0.540435   -0.22221500   -0.75918100
Se   22.25490000    4.20289000   10.92538000     -0.038598   -0.60180600   -0.09883400
Se   20.43221000    6.51943000    1.08663000     -0.647555   -0.02852600   -0.70882400
Se   21.93329000   10.08222000   10.59957000     -0.411956   -0.15659900    0.16344700
Se   21.63904000   13.06985000    0.17280000      0.239886    0.35761400    0.53560800
Se    0.36938000   16.23279000   12.67428000     -0.516960   -0.46658700   -0.91107600
Se    0.17054000   21.27789000    1.98841000      0.443835   -0.36384800   -0.57397600
Se   19.70026000   20.59706000   14.55345000     -0.683065    4.59219900   -0.24743900
Se    4.02850000    5.15096000    8.50928000     -0.090932    0.26962400   -0.45332800
Se    0.97289000    6.59996000   16.10643000     -0.965001    0.00146700    0.30082800
Se    4.46754000   11.10964000    8.91437000     -0.520800    0.29510100   -0.74068100
Se    3.70692000    8.92622000   17.68457000      0.796290    0.96757700   -0.28994000
Se    3.81234000   18.47064000    7.56241000     -0.176851   -0.79799100    0.86344700
Se   22.82737000   17.36261000   16.00741000     -1.451383    1.67134300   -0.14701800
Se    3.32394000   22.29901000   11.88741000      0.117310   -0.65187500   -0.02282100
Se    7.75460000   22.19656000   16.53483000     -0.234793    0.71667300    0.71895400
Se    6.87658000    3.95068000    4.73214000     -0.577084   -0.48699200    0.35138400
Se    5.70005000    4.76738000   17.32411000     -0.079331   -0.33781100    0.19487000
Se    6.68926000   10.51219000    5.49435000      0.400564   -0.49320600    0.52737200
Se    4.48182000    6.75512000   15.17530000      0.237114    0.86242300   -0.12732500
Se    6.21416000   16.44796000    9.29713000      0.654882   -0.41528600    0.12465200
Se    6.55994000   16.41387000   18.36596000      0.749001    0.23644900    0.60566400
Se    8.27667000   18.31622000    7.93059000     -0.113186    1.45962600    0.06536500
Se    7.95724000   22.73900000    1.45244000     -0.329557    0.39208200   -0.13554600
Se   14.08493000    2.74892000    9.29965000      0.345378   -0.03653600   -0.03381800
Se   12.37531000    4.84041000   17.35154000      0.655390    0.36487100   -1.92922700
Se   13.11499000    8.45892000   10.55028000      0.176903   -0.36551100    0.71377100
Se   13.52716000   11.84497000   16.10822000      0.120009   -0.33595800    0.37669300
Se   13.34726000   14.94632000    6.73983000      0.071192    0.20982500   -0.11306000
Se   13.96859000   15.30359000   17.07053000     -1.472587    0.74828600    0.82165800
Se   12.57033000   21.88915000    5.81547000     -0.439346   -0.56636200   -0.18370200
Se   17.01553000   21.78694000   17.54747000      0.443380   -0.46636200   -0.13386100
Se   18.73079000    3.23991000    9.11312000      0.078152   -0.21824300    0.69055500
Se   20.23845000    3.34648000   17.68054000     -0.500210   -0.25098200   -0.71678500
Se   17.84945000    9.10204000    8.20444000     -0.442436    0.43240400   -0.01241700
Se   17.17308000   10.54416000   16.37580000     -0.736894   -0.34398700    0.52551100
Se   15.06762000   16.28594000    9.92615000      0.167383    1.00645400    0.02449500
Se   17.77591000   15.24080000   15.84120000      0.619914   -0.27795000   -0.16286300
Se   17.69078000   19.12463000    8.39622000      0.478481   -0.24189200    0.03255900
Se   19.80161000   19.85737000    2.68832000     -0.313636   -0.98094100   -0.71279600
Se    4.51800000    0.99837000    7.93180000     -0.434714   -0.29799100    0.01566000
Se    0.34045000    4.63189000   17.32063000     -0.302521   -0.49681700    0.13569000
Se    7.15063000    7.17576000   10.61793000     -0.260438    1.48873700   -0.83155600
Se    3.43969000    6.97331000   18.80838000      0.079146   -1.32810100    0.51868000
Se    3.75324000   14.83602000    6.80261000      0.267697   -0.05575300    0.44878800
Se    4.89516000   14.15005000   17.86846000      0.010831    0.65853900    0.74511700
Se    3.31179000   21.19219000    9.57561000     -0.467529   -0.38544100    0.03182600
Se   22.34297000   17.11534000   19.28874000      0.397056   -0.76683700    0.32181900
Se    9.57832000   22.90687000    8.30972000      0.488735   -0.71148500    0.42379700
Se   10.91318000    3.28003000   19.14577000     -0.930384   -0.90933800   -0.74795500
Se   11.41535000    4.47189000    9.71470000     -0.355093   -0.62673700    0.20099700
Se    6.34485000    8.59019000   18.89082000      1.148357   -0.36609100   -0.45647900
Se   10.55248000   13.19541000    8.01570000     -0.843374    0.81104700    0.08770800
Se    8.44213000   12.42609000   18.00344000      0.653412    0.25337900    0.01953100
Se   11.26691000   21.08551000    7.86746000     -0.298761    0.89151000    0.07628100
Se   11.36185000   14.51901000   16.54380000      0.112891   -0.12533500    0.57588800
Se   17.01953000   22.14003000    8.77989000      0.533920   -0.21699000   -1.32842100
Se   15.43464000    3.51320000   18.64843000      0.922091   -0.02410500   -0.92367300
Se   15.28507000    5.88729000    9.27033000     -0.618969    0.34979300    0.56418600
Se   13.60034000    9.64846000   18.51042000     -0.511677   -0.54178900   -0.01876800
Se   16.56047000   12.71127000    9.59458000     -0.958282   -0.39553000   -0.42439400
Se   16.68220000   13.84974000   18.51554000     -0.310874   -0.28164300   -0.15662900
Se   15.08825000   18.48043000    6.06393000     -0.819923   -0.55675600    0.55035700
Se   16.53036000   19.15635000    0.87362000      1.447918   -2.88178600    0.52860300
Se   22.35541000   22.56834000    9.80889000     -0.803927    0.22531700   -0.38503500
Se    0.32903000    0.07360000   14.99694000     -1.660322    0.00218900   -0.24361000
Se   20.11471000    6.42398000    8.01403000      0.943619   -0.05622500    0.09827100
Se   21.83375000    8.02382000   18.93785000     -0.138939   -0.34662200    0.11938500
Se   21.84274000   10.06436000    7.21241000      0.034813   -0.75251200    0.15598000
Se   22.03344000   10.52078000   17.51195000      0.094841    0.18007200    0.53776000
Se   20.85400000   16.34148000    6.90686000     -1.369020   -0.60623700    0.46362900
Se   19.45776000   16.22926000   17.20971000      0.210792    0.24836800    0.16901800
Se    2.45870000    1.81329000    9.96517000      0.109475    0.50543500   -0.03148000
Se    2.58015000    1.67974000   15.21400000      0.501397    0.35702500    0.46660900
Se    1.12299000    8.33509000    7.65491000     -0.138879   -0.40552000    0.50765000
Se    1.75701000    9.51778000   16.41906000     -0.129909    0.11702700   -0.15745900
Se    1.14492000   16.21785000    6.46297000      0.395078    0.23402900    0.46438300
Se    1.48629000   13.26930000   16.72795000      0.439632   -1.88144500   -0.06899600
Se    0.35510000   18.45629000    6.26996000      0.018031   -0.12396000    0.30415900
Se    1.98467000   20.87242000   16.35999000      1.262808    0.09846800   -0.05863700
Se    6.95786000    0.83376000    5.93383000      1.057727   -0.32853900   -0.28898400
Se   12.70553000    0.57514000   18.94551000     -0.099932    0.02625400   -0.23875100
Se    7.85327000    7.02163000    6.72309000     -1.064517   -0.50133700    0.29674000
Se    7.39383000    7.18769000   14.34068000      0.044654    0.34306500    0.23158500
Se    7.47715000   14.45557000    6.00977000     -0.566268   -0.42181300   -0.12078200
Se    9.15678000   16.53416000   15.25975000     -0.292919   -0.16480800    0.16163500
Se    4.34884000   19.97316000    5.95258000      0.605311    0.60471000   -1.37745900
Se    8.27738000   14.16214000   15.77601000      0.606807    1.19798700   -0.35007600
Se   14.80321000   22.36593000    3.83409000      0.845209   -0.46084300    2.37288900
Se   15.17603000    1.21300000   16.63943000     -0.262529   -0.05891400   -0.57800400
Se   12.47644000    6.77114000    6.88983000      0.333991    0.61177200    0.00897800
Se   10.73371000    7.45610000   15.85372000      0.185242    0.22440500   -0.22352500
Se   12.42586000   11.93573000    4.95467000      0.528229    0.21609000   -0.53981400
Se   14.55784000   14.23869000   13.41766000      0.332156   -0.03846300    0.33741000
Se    9.39246000   15.91958000    5.28122000      0.015143    0.34514000    0.79689800
Se   13.66067000   19.77790000   18.41197000     -0.416448    0.69132000    0.37306500
Se   20.17416000    1.45280000    4.63800000     -0.227519    0.26516600    1.02635700
Se   18.60152000    0.56909000   17.80981000     -0.166602   -0.16269700    0.15530500
Se   17.52082000    4.88377000    6.37008000      0.150900   -0.25872900   -0.28369900
Se   18.67659000    7.10304000   15.86849000     -0.019513   -0.06098000   -0.02814800
Se   20.83686000   10.13235000    3.61843000     -0.020062   -0.06267300   -0.01146900
Se   16.97196000   13.43011000   13.23029000     -0.233508   -0.23855700   -0.21178000
Se   17.74148000   19.33951000    5.53367000     -0.068101   -0.09278400    0.04225700
Se   17.15536000   22.39015000   13.50924000      0.663786    0.55198100    0.49843800
Se    3.52305000    7.18272000    7.08093000      0.035066    0.22164000    1.35633800
Se    3.26557000    4.08346000   13.36767000      0.259621    0.63888100    0.53051600
Se    2.29943000    8.52387000    4.32908000     -0.553325    0.76411200   -0.66947500
Se    5.54835000   11.42921000   15.69774000     -0.701747   -0.53725900   -0.54470200
Se    5.28991000   12.96537000    6.68757000     -0.074553    0.29764400    0.05349700
Se    3.14269000   17.72200000   17.69578000      0.699657   -1.22318200    0.51854000
Se    2.08389000   21.44793000    5.92401000     -0.455568    0.17207100   -0.02612500
Se    4.40400000    0.34903000   14.54695000      0.506941   -0.25563600    0.02093600
Se   11.17074000    2.27237000    6.73054000     -0.495169    0.77807000   -0.55891800
Se    8.80692000    4.14761000   15.49657000     -0.121163   -0.93973400    0.65629600
Se   10.12750000   10.08328000    6.99889000      0.291934    0.05167600    0.41624700
Se    8.52320000   10.55528000   14.43983000      0.244861   -0.16538700   -0.10530700
Se    8.32710000   14.72086000    9.20624000      0.108833    0.37121600   -0.46265900
Se   13.08963000   18.35369000   15.96192000     -0.999626   -0.24375200    0.40551700
Se    9.84022000   19.43229000    3.55425000     -0.561184    0.92804800    0.19602600
Se    9.48343000   21.05290000   17.61631000      0.026888   -0.32312700    0.15961300
Se   14.30369000    4.10106000    5.29955000      1.058731    0.62457700    0.09862200
Se   18.14444000    3.74537000   14.66868000      0.150429   -0.08815800    0.06986500
Se   14.22178000   10.09653000    6.70641000      1.615165   -0.22037900   -0.25100100
Se   17.88510000    9.87394000   12.93460000      0.046072   -0.49466800   -0.18318800
Se   17.20739000   12.09193000    5.64975000     -0.278060   -0.02874700    0.21863400
Se   16.02727000   19.01152000   16.04336000      0.867885   -0.19474800    0.24043400
Se   16.36497000    0.94985000    4.88421000     -0.718776   -0.28891500    0.03168400
Se   18.44274000    3.19270000   12.37682000      0.566019    0.32147700    0.09871900
Se    0.84427000    4.36711000    7.04628000     -0.704560    0.47472900    0.59953300
Se   22.18809000    3.41983000   14.59887000      0.696868    0.91705300    1.42914800
Se   20.02530000   12.72379000    8.44657000      0.323813   -0.27206100   -0.15372600
Se   21.76165000   11.64211000   15.38507000     -0.031463   -0.56596200   -0.34452700
Se   21.91412000   12.83216000    6.54156000      0.567587    0.22455600    1.38436900
Se   19.95366000   18.49456000   14.47403000      0.687758   -4.37165700   -0.22166900
Se   19.82014000   20.20243000    8.12066000      0.380644   -0.24587700   -0.05988800
Se   21.75240000   21.10807000   17.80536000      0.041343   -0.43733700   -0.23740800
Se    3.21851000    3.38700000    5.51540000     -0.152118   -0.47061000   -0.62773400
Se    7.43860000    1.51344000   17.84735000      0.539447    0.11276800   -0.57915700
Se    0.37999000    4.74925000    0.52326000      0.268314   -0.07283400   -0.67225500
Se    3.67285000    9.18922000   10.19379000      0.346185   -0.50422800    0.41032100
Se    0.40448000   12.52925000    3.03201000      0.431581   -0.58741700   -0.48279600
Se    2.71805000   15.57157000   14.63883000      0.376703   -0.34137100    0.50171500
Se    3.95745000   16.17009000    1.39239000      0.209916   -0.44987200    0.02301600
Se    5.60978000   18.66075000   13.00147000     -0.488276    0.07411800    0.51751400
Se   10.68676000    0.46975000    2.88528000      0.321135    0.52181700   -0.18436000
Se   11.60808000    1.55161000   13.61254000      0.378788    0.16030700    0.97719100
Se   10.25856000    8.89585000    3.65720000     -0.648693   -0.70180500    0.11828400
Se    7.53979000    8.92045000   16.29919000     -0.603722    0.53936900    0.30516800
Se    9.62240000   12.21182000    3.77900000     -0.108684    0.38394800    0.03856500
Se    9.61340000   12.43634000   11.67112000     -2.383788    0.39068500    2.90247400
Se    8.95621000   20.10600000    1.28469000     -0.064019    0.35193800    0.00491600
Se   11.44063000   19.35093000   14.58837000     -0.331702   -0.52315700    0.04652600
Se   18.59318000    0.64924000    7.43914000     -0.032499    0.24819600   -0.17000000
Se   14.94475000    1.87568000   13.42477000      0.441401    0.65056000   -0.91169600
Se   15.68409000    7.09077000    3.77077000      0.079565    0.31618900   -0.08954500
Se   14.05326000    4.67358000   15.29615000     -0.164094    1.10932400    0.71695100
Se   15.32683000   11.85965000    2.45612000      0.689313    1.05556400   -0.03779400
Se   17.05891000   17.12651000   13.03410000      0.008202    0.14153500    0.23983900
Se   15.54340000   16.26910000    3.79410000     -0.683017   -0.20414000    0.52120700
Se   15.10150000   19.99398000   14.17355000      0.530122    1.00786200    0.17805500
Se   22.67950000   21.90949000    5.18075000      0.279441    0.53987100    0.48288100
Se   20.99691000    0.27502000   13.51130000      0.639758    0.34560700   -0.27921500
Se   20.78579000    3.71027000    3.61895000      0.409410    1.06730700   -0.15104200
Se   20.65111000    9.24800000   14.70692000     -0.085620   -0.46566600   -0.78954200
Se    1.68192000   12.40681000    5.39417000     -0.206733    0.26255700   -0.08281200
Se   21.77838000   13.88596000   15.91011000      0.258478    1.78576100   -0.03422100
Se   21.35015000   18.86570000    4.38630000      0.556576   -0.52497900   -0.05856200
Se   21.36129000   18.60259000   10.44188000      0.421101    0.80147900   -0.05196400
Se    0.44100000    5.29506000    4.78037000      0.095473   -0.86029000    0.86623500
Se   21.01688000    5.74679000   13.76460000      0.088060   -0.51019800    0.61867200
Se   22.84684000    9.77370000    2.40313000     -0.249627    0.84400200    0.46361400
Se    1.20946000   10.81289000   13.22521000      1.119640    0.88875100    0.35247200
Se    1.88893000   14.01720000    1.50698000     -0.922454   -0.06774700    0.44260500
Se    1.54698000   20.89039000   12.70945000      0.038763   -0.09056600    0.01443700
Se    4.48643000   22.92963000    3.30144000     -0.407029   -0.15657500   -0.79216000
Se    5.00234000   19.44898000   15.22869000     -0.069927   -0.25493200   -0.59905100
Se    9.53161000    5.98163000    8.14540000      0.423530    0.41253400    0.11774900
Se    7.19167000    4.99809000   12.68932000     -0.562412   -1.13449100    1.02787500
Se    5.40084000    6.86392000    4.22937000      1.189934    1.03759900   -0.01403700
Se    7.84698000   10.26670000   11.85174000      0.073329    0.99179300    0.12846900
Se    7.62763000   16.86702000    2.99914000     -0.371442   -0.31945100   -1.04794600
Se   11.84908000   14.21637000   13.54233000      0.010448    0.47925800    0.23378400
Se    7.62964000   21.53028000    6.20559000     -0.260108    0.09625600   -0.25223900
Se    7.75485000   22.29204000   14.01256000      0.239174   -0.35329600   -0.63462900
Se   12.50282000    2.33716000    3.21724000     -0.705529   -0.82320200    0.28819800
Se    9.94417000    2.40382000   12.24204000     -0.259885    0.29297800   -0.72573300
Se   13.59879000   10.40871000    2.91439000     -0.147418   -0.68920700    1.03503500
Se   12.25363000   10.10737000   13.33991000     -0.404294    0.01156200   -0.31121000
Se   11.69453000   15.26095000    3.07590000      0.721958   -0.16331200   -0.07503300
Se   14.62961000   18.14398000   12.77614000     -0.299468   -0.81469300   -0.67218300
Se   13.72313000   18.88546000    2.86891000     -0.942773   -0.39205500   -1.08246400
Se   14.00476000   22.35471000   15.37886000     -0.426095    0.67926700    0.44770400
Se   16.99810000    5.22217000    0.59164000      0.334436    0.62172200   -0.03147300
Se   15.76788000    6.36459000   13.47239000      0.379266   -0.55439300   -0.39257400
Se   17.94083000    8.77517000    3.77988000     -0.044092    0.57988600   -0.10940300
Se   20.29731000   13.27977000   12.96132000      0.743564   -0.14844300   -0.52012000
Se   21.61221000   15.62530000    3.69274000      0.777387   -0.10205100   -0.28034800
Se   19.25883000   15.76546000   10.50553000      0.133711   -0.52771500   -0.69332300
Se   20.21885000   22.27860000    3.71860000     -0.387169   -0.07086500   -0.06088300
Se   16.12663000   22.77999000   10.74882000     -0.634671    0.66792000    1.09277300
