384
23.00800000 23.00800000 19.32000000
Ge    5.37420000    5.37099000   10.68349000      0.855342   -0.36018900    0.09879100
Ge    5.52902000    6.39819000    1.98975000     -0.288391   -0.11685600   -1.21967700
Ge    1.62913000   11.55970000    7.84889000      0.321863   -0.02708400    0.53775900
Ge    5.99215000   11.74660000   18.21711000     -0.924508   -0.04770700   -0.08275600
Ge    4.23422000   14.95437000    9.18432000      0.137725    0.41991900    1.94362400
Ge    8.15467000   17.70507000    0.68514000      0.074520   -0.09584300    0.49041300
Ge    9.34881000   19.86574000   10.16014000     -0.558181   -0.20667900   -0.02217300
Ge    4.30112000    3.31637000   19.21197000      0.359536   -0.38380400   -0.15618700
Ge    9.14355000    5.32036000   11.04993000     -0.201675   -0.01619000   -0.31149500
Ge   10.89300000    5.42239000    1.27739000     -0.210555   -1.07979600    1.76682100
Ge   11.04495000   11.99746000    9.97639000     -2.351524    0.67959700    0.75876500
Ge   11.58624000   12.34885000   17.87594000      0.121883    0.00980800   -0.01980700
Ge    9.77182000   16.54985000    7.75503000     -0.489267   -1.03791000   -0.11160100
Ge   13.02527000   15.50020000    0.52714000     -0.149247   -0.92766800   -0.05159200
Ge   10.77169000    2.04575000    9.57300000     -0.580515   -1.65640700   -0.51915100
Ge   15.82560000   21.58213000    0.64375000      1.866446   -1.66241900   -1.69877300
Ge   19.28509000    5.45352000   10.42353000     -0.245122    0.19617700   -0.21804500
Ge   19.39936000    9.30446000   17.33743000     -0.157336   -0.16563500   -0.13519400
Ge   21.34214000   14.37554000   10.85383000      1.586305   -0.81870300   -0.80789600
Ge   16.98576000   11.43505000   18.90819000      0.427732   -1.13390700    0.08101500
Ge   14.02956000   17.15845000    7.62787000      0.622176    0.44427800    0.92940200
Ge   18.21037000   14.11224000    1.16065000      0.816658    1.11177900    0.80885700
Ge   19.68584000    0.64651000    9.83388000      0.419666    0.21570000    0.52558800
Ge   18.13299000    2.89078000    0.57944000      0.071912   -0.26617200    0.07935800
Ge    0.07762000    6.13219000    8.71475000     -0.727602    0.43195500    0.50182100
Ge   20.86446000    3.63907000    0.98312000      0.123219   -0.08018000   -0.97527300
Ge    1.23135000   11.06426000   10.81114000      0.409398   -0.17277300   -0.37112600
Ge    1.07888000   11.59252000   18.42433000      0.075468   -0.46798000    1.34491800
Ge   22.88661000   14.56529000    8.33515000     -0.075336    0.94643300    0.11142800
Ge    1.16831000   15.70782000   16.93166000      0.193466    0.48496700   -0.10311500
Ge   20.38706000   21.01336000   10.35230000     -0.152529   -0.14983800    0.75875700
Ge    2.30827000   21.58021000    0.01954000     -0.350310   -0.35344100    0.38784000
Ge    5.91519000    8.90647000    8.50474000      0.245135   -0.94511800   -0.56162500
Ge    1.14922000    7.33693000    0.54564000     -0.486308   -0.35043300   -0.76149800
Ge   22.47449000    8.31209000    5.75616000      0.340175   -0.52782600   -0.41291000
Ge    3.75808000   13.30004000   15.51307000      0.251855    0.45311000    0.66262000
Ge    3.78913000   18.00571000    2.89965000     -0.067978    0.21413700    0.81462900
Ge    1.02157000   18.95632000   17.76682000     -0.661138   -0.00330700   -0.09734200
Ge    5.09308000   19.27994000    9.82160000     -0.530981   -0.12218000    0.16241200
Ge    3.64380000    0.20490000   17.01667000     -0.384418   -0.19892100   -0.68394100
Ge    8.57086000    3.77104000    6.69083000      0.446088    0.12616400    0.75277200
Ge    8.38097000    3.97177000   18.35794000     -0.273584    0.79665000   -0.00310000
Ge    7.08262000   12.81123000    4.23743000     -0.163614   -1.08738100   -1.80514500
Ge    8.26130000    7.72077000    1.33605000     -0.142487   -0.42445700   -0.65161700
Ge    6.06619000   17.19337000    6.79941000     -0.596567   -0.42191300    0.63009700
Ge    8.88431000   15.08302000   18.03845000      0.295342    0.17130100    0.77908100
Ge    9.95334000    0.15363000    5.80174000     -0.560586    0.40523100    0.07254900
Ge   11.01779000   22.07801000   13.86980000     -0.608876   -0.40014100    0.67871000
Ge   12.66686000    6.42994000    9.20072000      1.007081   -0.19438600    0.14136500
Ge   14.63981000    6.82469000   16.82568000     -0.553302    0.28296500    0.26488800
Ge   12.48741000    9.49784000    8.58550000     -0.259602   -0.09040900   -1.62923500
Ge   15.46750000   13.50661000   16.40204000     -0.110887   -0.35908400   -1.02828700
Ge   13.21944000   16.78403000    5.05940000      0.098899    0.79713700   -1.40116400
Ge   14.43679000   17.63094000    0.64106000      0.858625    1.25168800    0.38105800
Ge   14.05383000   22.15742000    7.93167000     -0.210269   -0.00115100    0.72410600
Ge   16.87568000    1.75980000   14.88039000      0.534119   -1.45229300   -0.32226700
Ge   19.77046000    4.08601000    6.94054000      1.638498   -0.77236800   -0.68176200
Ge   20.85981000    5.67511000   16.82806000     -0.263378    0.16730000   -0.07387400
Ge   16.19523000   11.10994000    7.38927000      0.638324   -0.56870700    1.97587800
Ge   19.96662000   13.82558000   17.56826000      0.486507    0.35393900   -0.17543100
Ge   18.70770000   16.48282000    5.40575000      0.539936    0.09543400   -0.37761100
Ge   19.86608000   19.47675000   16.95320000     -0.066426    0.91850600   -0.42946600
Ge   22.63585000    1.38618000    5.47179000      0.030928    0.00352300   -0.37780400
Ge   19.32347000   22.01286000    0.28991000      0.540867   -1.14700100    0.10823000
Ge    5.29230000    3.54204000    6.88488000      1.054461   -0.82150300    0.63200700
Ge    2.77053000    5.01492000   15.76379000     -0.187509    0.48784500    0.09257600
Ge    3.12163000    6.14015000    4.91892000     -0.929104   -0.14056200   -0.53656400
Ge    3.42495000    9.31137000   14.50536000      0.894789    0.03568300   -0.68339700
Ge    1.46494000   15.14762000    4.37033000     -0.790439   -0.33231400   -1.43488200
Ge    0.15904000   18.41907000   13.55484000      0.196064    0.69742800   -0.83066700
Ge    1.89576000    1.73118000    7.13704000      0.553025    0.19120900    0.84844500
Ge    4.78118000   16.88723000   15.99482000     -0.399741    0.26354800    0.01106800
Ge    9.94935000    2.59515000    2.02012000     -0.447267    1.39389900   -0.34813400
Ge   10.12085000    2.06432000   16.48206000     -0.480858    0.33920100    0.15125100
Ge    8.65585000    8.85136000    5.67563000      0.039318    0.33301400   -0.67821400
Ge    9.70482000    8.49136000   13.95890000     -0.055429   -1.74496600   -0.62074200
Ge   11.16998000   13.90491000    5.26133000     -1.656765    1.47220900    0.62815900
Ge   11.24561000   12.01198000   15.02393000      0.203745   -0.32196600   -0.96967500
Ge    6.28018000   21.40645000    2.42562000     -0.090958   -0.78902400    0.62217800
Ge   10.59510000   18.22697000   16.66149000     -1.354370   -0.43631600    1.07451900
Ge   13.96170000    1.73772000    5.81269000      0.320991   -0.06322400    0.16875900
Ge   11.02903000    5.44855000   14.82428000     -0.174456   -0.50023700    0.69617200
Ge   15.26095000    6.97905000    6.09020000     -0.717928   -0.13056300    1.33218300
Ge   14.01515000    9.56755000   14.81870000      0.985492   -0.61141400   -0.33961400
Ge   14.89971000   13.44692000    5.08966000     -0.382483    0.15795900   -1.00536300
Ge   15.65837000   16.17122000   15.04908000     -0.467626    1.20968200   -0.21778000
Ge   11.44124000   17.70760000    2.77071000     -2.142299   -0.18143900    0.98861000
Ge   12.56195000   21.76348000   17.52889000     -1.419454    1.76641300   -1.09017500
Ge   17.67627000    5.57966000    4.19427000      0.230771    0.30038800   -0.69696300
Ge   20.86516000    2.66260000   12.83169000      0.356105    0.93242700   -0.79068800
Ge   19.56360000    8.67246000    6.39729000      0.117796   -0.15410700    0.55952600
Ge   18.64067000   11.62884000   14.63419000     -0.078299    0.10908900   -0.20679500
Ge   22.78683000   14.84487000    1.19879000     -1.292442    2.20059000    0.23767500
Ge   18.74869000   15.14932000   13.11299000     -0.651816    0.14375700    0.48128000
Ge   20.03904000   20.65923000    5.68220000     -0.338490   -0.91686800   -0.72059400
Ge   22.68992000   20.82995000   15.21613000     -0.097355    0.03324200    0.65045200
Ge    4.54511000    2.63207000    3.44769000      0.802489    0.26299600   -0.60899600
Ge    5.34223000    3.56975000   15.42550000      0.324481   -0.74313400   -0.89287000
Ge    4.41914000    9.50585000    4.31080000      0.689493   -0.19224400    0.18691400
Ge    5.38437000    8.36534000   12.14351000     -0.942811    0.90511500    0.97445400
Ge    6.17730000   14.90662000    1.76752000      0.202125    0.32815600    0.00507700
Ge    3.39820000   14.13921000   12.30157000     -1.280003    0.59819100    0.42831400
Ge    4.48593000   22.56738000    5.60541000      0.050564    0.07492000    1.52873700
Ge    7.11852000   20.17194000   12.39477000      0.604265    0.32177300    0.43504200
Ge   11.98384000    4.35748000    5.00107000      0.442820   -0.49172500    0.41711800
Ge    7.55223000    1.96339000   13.06086000      0.166362    0.13885000   -0.58144400
Ge   11.74885000    9.92680000    1.07946000      0.841627    0.42558600   -0.70753200
Ge   13.35905000    7.10584000   13.48795000     -0.420093    0.48812800    0.30721700
Ge    9.74855000   13.79060000    1.85583000     -0.300915    0.46942000   -1.52039900
Ge    8.97960000   15.39756000   11.50881000      0.008915   -0.56319700    0.09070700
Ge   12.19723000   20.94755000    1.95555000     -0.250544    0.56929400   -0.66039900
Ge   12.14692000   18.88321000   11.44943000      0.048581    0.45780000   -0.20483700
Ge   21.68575000    0.80138000   17.79035000     -0.278737   -0.47523800   -0.34033300
Ge   14.00537000    5.15359000   11.51297000      0.902920   -0.54793000   -0.16360600
Ge   18.10656000    8.16975000    1.30135000     -0.044027   -0.36136200   -0.31404100
Ge   15.94921000    8.14478000   10.24877000     -0.992803    1.81262300   -1.28210200
Ge   18.00369000   11.16775000    2.98908000     -0.083154    1.06845200   -0.19602600
Ge   19.21349000   14.87390000    8.04647000      0.720276    1.10108000   -0.15016900
Ge   17.85968000   17.92228000    3.03943000      0.509867    0.34433100   -0.45497500
Ge   15.67351000   20.19127000   11.16033000      0.342759   -0.59058100    0.13955600
Ge    0.52420000    0.66900000    1.93046000     -0.386008   -0.14174700   -0.44858900
Ge    0.56848000    0.30199000   12.10450000     -0.251526   -0.29531000   -0.17252700
Ge   20.27092000    6.19051000    3.68629000      0.034570    0.54139200    0.17694700
Ge   22.44223000    9.23310000   12.99919000     -0.405288    1.03425100   -0.47247300
Ge   20.83030000   13.15891000    4.41157000     -0.154537    0.66501100   -1.57267300
Ge    1.08830000   17.37148000    9.60479000     -0.641388   -0.68047000   -0.25585600
Ge    2.16295000   20.25976000    3.42196000      0.054625    0.13652500    0.27498800
Ge   20.75061000   16.79079000   12.42538000      0.977390    0.98779600    0.23970700
Se    0.94882000    1.01420000   18.62119000      0.615559   -0.01792300    0.71780300
Se    1.27449000    3.31405000   11.86760000      1.082249   -1.16558900   -0.23200800
Se    0.47972000    6.99746000    2.80267000     -0.148910   -0.01252600    0.85368300
Se    0.12671000    7.00999000   12.79794000      0.590202   -0.33248800   -0.37003000
Se    3.93750000   10.73910000    0.77957000      0.128193    0.32541000    0.17314100
Se    1.78991000   13.72464000    9.81045000     -0.294028   -0.57414600   -0.59393700
Se    1.22089000   17.82329000    3.01151000      0.632694    0.22157600   -0.02080500
Se    0.83397000   19.80038000    9.70392000      0.376327    0.14417800    0.48682700
Se    6.79566000    2.18370000    1.48692000      0.218104    0.11977800   -0.20005800
Se    6.78258000    1.61432000    9.80214000      0.252471    0.45481800    0.76501400
Se    7.52841000    4.94551000    1.69887000     -0.125767    0.29123200    0.21254000
Se   10.54848000    7.02222000   12.19118000      0.064510    0.36717500    0.10380700
Se    8.58407000   11.64471000    0.89497000     -0.260931   -0.18617600    0.49423300
Se    5.67718000   14.52944000   12.93296000      0.603151   -0.03223200   -0.09165900
Se    4.14028000   19.94159000    1.32987000     -0.310576    0.31957700   -0.70062100
Se    8.96075000   18.27810000   12.21814000      0.139405    0.93160700   -0.90664300
Se   13.68616000    3.49007000    0.81960000      0.572425   -0.41286400    0.42637400
Se   12.85815000    0.81990000   10.21500000      0.321065   -0.20521000   -0.36005000
Se    9.86149000    6.50790000   18.87407000     -1.211944    2.02164400   -0.50250000
Se    9.43842000    9.70111000    9.48256000      1.177455   -0.31105400   -0.49968900
Se   12.04746000   12.73877000    0.88914000      0.205639   -0.04219900    0.09112700
Se   13.21471000   11.51960000    9.76469000      1.546277    0.22997800    0.63976500
Se   15.51823000   14.89659000    1.77114000      0.121514    0.73076800    0.09774400
Se   11.76154000   17.75350000    8.33536000     -0.479841    0.72412600    0.53625300
Se   16.67900000    3.86810000    2.65596000     -0.104234   -0.60416200    0.05771300
Se   15.74556000    2.86819000   11.43809000      0.119499    1.38343500   -1.02140400
Se   17.15762000    6.92645000   17.63952000      0.141445    0.16037800   -0.09548600
Se   20.76234000    7.14316000   11.56842000     -0.132638   -0.20690200    0.25649700
Se   19.43362000   10.18705000    0.69151000     -0.442403    0.42730000   -0.34292400
Se   17.16811000   15.40816000    7.00602000     -0.158629    0.21074400    0.19387800
Se   19.21500000   16.67319000    0.84994000     -0.546504   -0.74954800    0.31918300
Se   17.99953000   18.93120000   10.77610000     -0.612165    0.59891700    0.17751000
Se    3.55205000    4.63664000    1.91053000      0.237111    0.17330400    0.02113100
Se    3.52310000    6.45390000   11.94101000     -0.305511    0.03099600    0.41611000
Se    5.59498000   10.84967000    2.56218000     -0.970960   -0.55451100   -0.59863100
Se    5.15222000   12.96438000   11.10419000      0.887653   -0.31203200   -0.80236200
Se    3.95218000   15.37534000    3.72310000      1.362251   -0.41189000    0.35378500
Se    3.15758000   16.97124000   10.76718000      1.189030   -0.37674200   -0.14684400
Se    3.98554000    0.43548000    0.63708000     -0.062505   -0.03933200   -0.35585200
Se    6.74536000   21.43069000   10.35189000      0.617274   -0.71232600   -0.24978100
Se   10.38762000    6.23479000    3.81746000      0.423843    0.59756300   -0.64563300
Se    7.45554000    3.94264000    9.43938000      0.396211   -1.18836600   -1.16739800
Se   10.80168000   10.10797000   17.51389000      0.620243    0.08779400   -0.01412600
Se    7.50633000   10.78238000    8.88168000     -0.641975    1.12624800    0.91321600
Se   10.83026000   17.30517000    0.58140000     -0.368968   -0.22207900   -1.64462000
Se   11.44876000   14.80929000   11.16720000     -0.000927   -0.23636900   -0.01079600
Se   14.35778000    0.03364000    1.62232000     -1.164821    0.21641100    2.29301100
Se   11.97891000   21.43817000   11.74322000     -0.084784   -0.69294000   -0.49104200
Se   13.22475000    5.79768000    1.02539000      0.785459    0.70541600    0.33869300
Se   17.42969000    7.08041000   11.66780000      1.760095   -1.00667300    1.24361400
Se   15.80326000    9.16712000    0.72541000     -0.641037    0.06143800   -0.62244900
Se   15.40158000   10.53135000   12.85544000      0.691753   -0.64920900    0.38364900
Se   18.45267000   14.32012000    3.73435000      0.277446   -0.02306600    0.34323700
Se   14.38283000   14.09449000    9.49808000      0.909840   -0.57564600    0.60481600
Se   17.65421000   22.43880000    1.99927000     -0.469682    0.43066900    0.21538900
Se   13.98962000   19.64652000    9.20936000      0.164886    0.30048200    0.52172300
Se   20.89926000    0.72090000    1.32414000      0.632537    0.87737700   -0.42406400
Se   22.54094000    4.29185000   10.91079000     -1.518202    0.51216900   -0.66538200
Se   20.49984000    6.37326000    1.01918000     -0.929171   -0.24599700    0.45887100
Se   22.00581000   10.16943000   10.64157000     -0.282364   -0.41352900    0.68571700
Se   21.64569000   13.03797000    0.24884000     -0.483373   -0.52018200   -0.57696900
Se    0.33639000   16.16287000   12.59808000     -0.611871   -0.18756300   -0.40604200
Se    0.22623000   21.13128000    2.10258000      0.837355    0.45501200   -0.85398300
Se   19.75485000   20.81133000   14.38753000      0.083207   -0.83597400    0.31553400
Se    4.12187000    5.01577000    8.53881000     -0.290729    0.48562300   -0.12047000
Se    0.72537000    6.57043000   16.20269000      0.254672   -0.47154200    0.27871900
Se    4.39271000   11.15170000    8.75569000     -0.650593    0.16741100   -0.24196400
Se    3.90963000    8.80910000   17.49414000     -0.342426    0.05175800    0.44843200
Se    3.61587000   18.44485000    7.66873000      0.836536   -0.10514400    0.18804200
Se   22.74653000   17.55805000   15.74348000      0.033049    0.42848400    1.50362400
Se    3.40329000   22.24692000   11.89131000     -0.127374   -0.44481800   -0.05178500
Se    7.85526000   22.57708000   16.51730000      0.715380   -0.14119000    0.02149800
Se    6.53857000    3.89006000    4.53589000      0.373921   -0.11703100    0.32737100
Se    5.63266000    4.89832000   17.36686000     -0.214911    0.27897200    1.20089700
Se    6.73927000   10.37368000    5.43480000     -0.134702    0.04962200    0.16439100
Se    4.54019000    6.66050000   15.12413000     -0.538631    0.68859600    0.29458600
Se    6.27315000   16.41040000    9.38132000      0.118641   -0.49123700   -0.48156800
Se    6.58754000   16.34913000   18.35065000      0.172562   -0.25039400    0.61419100
Se    8.15219000   18.25747000    7.88153000      0.196270    1.69043600    0.38848800
Se    8.11824000   22.84193000    1.62628000     -0.554945    0.10028700   -0.45030000
Se   14.29748000    2.42515000    9.25040000      0.139295   -0.05164200   -0.48710900
Se   12.38941000    4.77569000   17.16003000     -0.024849    0.03305000   -1.18467300
Se   12.99469000    8.45151000   10.68189000      0.356305   -1.06647800    0.57192500
Se   13.65167000   11.70781000   16.11780000     -0.523352    0.79415600    0.75540200
Se   13.28980000   14.99881000    6.68879000      0.025865   -0.96228700    0.33529000
Se   14.00869000   15.45268000   17.07935000     -0.803886    0.20886400    0.49127400
Se   12.47878000   21.78873000    5.97605000      0.582899    0.20061200   -1.64948700
Se   17.14635000   21.73903000   17.35636000     -0.005689   -0.76860800    0.56353000
Se   18.98590000    3.24007000    9.12836000     -0.164164   -0.54148100    0.82211800
Se   20.13363000    3.39734000   17.73652000     -0.364065    0.11310600    0.04370200
Se   17.84395000    9.37333000    8.19071000     -0.204054    0.03834100   -0.04426700
Se   17.20406000   10.43323000   16.44438000      0.116840    0.25585800    0.47667900
Se   14.94548000   16.33485000    9.68374000      0.531574    0.43505300    0.53865000
Se   17.75222000   15.14678000   15.86962000      1.453418   -0.18140100   -0.09804300
Se   17.77313000   19.02760000    8.19015000      0.273906   -0.26573100    1.12313300
Se   19.95301000   19.84087000    2.49833000     -0.172787   -0.57321500    0.32475900
Se    4.58965000    1.11626000    8.08536000     -0.318827    0.00916200   -0.63753100
Se    0.06094000    4.44127000   17.41867000      0.933372    0.00130700   -1.04768800
Se    6.94112000    7.39512000   10.66909000      0.789127   -0.53344800   -1.64495700
Se    3.34722000    6.92565000   19.07318000      0.443585    0.06201600   -0.41839000
Se    3.67395000   14.62817000    6.89857000     -0.340472    0.95860000   -0.92490500
Se    4.79532000   14.46277000   17.75204000     -0.247591   -0.96088600   -0.45878800
Se    3.40322000   21.17675000    9.57539000     -0.580925    0.03108000    0.15400000
Se   22.17800000   17.04919000   19.17094000      0.753881   -0.68959700    0.25189800
Se    9.45309000    0.04389000    8.45807000      0.253199   -0.50542300    0.07392300
Se   10.83241000    3.33917000   18.92085000     -0.205148   -1.24049500   -0.22299800
Se   11.52985000    4.26310000    9.72605000      0.139161    1.80740600    0.42167800
Se    6.21978000    8.53085000   18.97766000      1.282262   -0.11935800   -0.70988500
Se   10.33230000   13.17800000    8.05756000     -0.259558    0.46867500    0.09047700
Se    8.45052000   12.46384000   18.02654000      0.639866    0.17213000   -0.27272200
Se   11.23358000   21.27176000    7.82477000     -1.112228   -0.27535500    1.71577900
Se   11.44545000   14.41091000   16.56350000      0.058100    0.20296000    0.34577400
Se   17.11009000   22.09609000    8.66563000     -0.942623   -1.11298700    0.29991900
Se   15.39947000    3.66969000   18.59950000      0.262767    0.15246600   -0.41278100
Se   15.33251000    5.92942000    9.38631000     -0.953824   -0.78413400   -0.05843500
Se   13.64438000    9.56661000   18.40169000     -0.724191   -0.36696200    1.32212200
Se   16.46171000   12.67243000    9.61961000     -0.919304   -0.26208300   -0.93047200
Se   16.61019000   13.87602000   18.50946000     -0.407801    0.26868600    0.08787700
Se   15.00694000   18.59579000    5.96916000      0.036594   -0.47553000    0.39474900
Se   16.57493000   19.11385000    1.06241000     -0.565246   -0.50674600   -0.15122100
Se   22.36015000   22.59344000    9.81422000     -0.530233    0.22196800   -0.37814900
Se    0.33058000    0.17172000   15.11018000     -1.044826    0.95900800   -0.00228800
Se   20.06592000    6.22797000    8.05112000      1.077909    1.50793500    0.44475100
Se   21.90727000    7.96257000   19.06393000     -0.162220    0.53172000   -0.84168300
Se   21.77711000    9.96138000    7.33952000     -0.474113   -0.28645500    0.42269900
Se   22.12688000   10.35776000   17.47020000     -0.713071    0.20383700   -0.48516200
Se   20.99639000   16.20182000    6.77304000     -1.616841   -0.10877000    0.28308700
Se   19.26836000   16.48115000   17.31601000      0.204383   -0.62761300    0.60658800
Se    2.23068000    1.94200000    9.97491000      0.367489    0.09435700   -0.39956900
Se    2.69567000    1.92917000   15.26320000      0.571206    0.10712600    0.30758900
Se    1.40247000    8.32183000    7.54809000     -0.192928   -0.26292600    0.22674400
Se    1.79402000    9.45121000   16.23916000      0.035167   -0.30157100    0.74237000
Se    1.40888000   16.17028000    6.52226000     -0.861344    1.51145900    1.43204400
Se    1.32449000   13.06181000   16.60922000      1.081183    0.17081000   -0.94567300
Se    0.42193000   18.59128000    6.28451000      0.162678   -1.02230400   -0.04267900
Se    2.15339000   20.78937000   16.26009000      0.329941    0.17502000   -0.06244400
Se    7.13106000    0.77785000    5.62706000      0.248303    0.90832300   -0.28153100
Se   13.00198000    0.58555000   19.15344000     -1.192356    0.29461600   -1.61719500
Se    7.64581000    7.05178000    6.84949000      0.187540   -0.61051900    0.26744300
Se    7.27003000    7.24250000   14.30810000      0.722001    0.25581200    0.03568600
Se    7.46766000   14.17992000    6.03019000     -0.241253    1.52437000    1.81227400
Se    8.92059000   16.60518000   15.13759000      0.029469   -0.07434500   -0.04526900
Se    4.41472000   19.92978000    5.97774000      0.648612   -0.04646100   -0.53312100
Se    8.27569000   14.37943000   15.87685000      0.024661    0.40685700   -1.67266200
Se   14.89969000   22.25137000    4.18977000      0.355126   -0.14989000    0.13168800
Se   15.10862000    1.23357000   16.63028000      0.396574    1.06303700    0.71704200
Se   12.33522000    6.84591000    6.91901000      0.487760    0.31367700   -1.01643000
Se   10.65320000    7.66643000   15.90526000      0.578363   -0.60392100    0.58922200
Se   12.37818000   12.05698000    4.87696000      2.339863   -1.75797300   -0.45419900
Se   14.61738000   14.35631000   13.51073000     -0.438120   -0.38035600   -0.09794300
Se    9.33498000   15.97468000    5.42629000      0.340863   -0.24313500    0.19331700
Se   13.50319000   19.92328000   18.35979000      1.121640   -1.35791800    1.66201300
Se   20.28554000    1.69731000    4.76557000     -0.208394   -0.70337800    0.49556200
Se   18.62335000    0.47458000   17.86259000     -0.372752    1.03898500   -0.84979200
Se   17.60397000    4.90389000    6.49228000     -2.019309    0.27024300   -0.34266600
Se   18.82449000    7.01025000   15.83647000     -0.740796    0.07694400    0.07946900
Se   20.92372000    9.94792000    3.60852000      0.151633   -0.30305100   -0.19383300
Se   16.99844000   13.46707000   13.31970000      0.096709   -0.73140700   -0.27342000
Se   17.74775000   19.37836000    5.76614000      0.504406    0.55856100   -1.77651900
Se   17.28957000   22.37125000   13.39537000      0.425646    0.60434500    0.42863100
Se    3.62414000    7.20353000    7.06988000     -0.659773    0.34568900    0.45413800
Se    3.45040000    4.12798000   13.33689000      0.150419    0.81572200    0.23947200
Se    2.06066000    8.43278000    4.26421000     -0.249723    0.23461300   -0.96328600
Se    5.49345000   11.06317000   15.57533000     -0.543600   -0.18316800    0.30943400
Se    5.20263000   12.94259000    6.71706000      1.043434   -1.20408000   -0.14324300
Se    2.98050000   17.45638000   17.83926000      0.767995   -0.35960700    0.15792800
Se    1.90585000   21.47844000    5.99469000      0.043969    0.27589100   -0.15176800
Se    4.34918000    0.42004000   14.41836000      0.249234   -0.13679900    0.21111500
Se   11.13281000    2.47637000    6.79662000     -0.554947    0.38720500   -0.49837700
Se    8.72661000    4.18193000   15.81395000      0.728763   -0.65320800   -0.43143400
Se   10.05297000   10.16907000    7.00716000      0.766129   -0.08871800    0.44924000
Se    8.73382000   10.50099000   14.44674000     -1.026921    1.23852100   -0.00024700
Se    8.37588000   14.57254000    9.04226000      0.396740    0.62300300    0.12069600
Se   12.99273000   18.40937000   15.96850000      0.310069   -0.75724700    0.45601100
Se    9.62412000   19.31937000    3.48759000      0.465675    0.26278800   -0.14612800
Se    9.82408000   20.89781000   17.49735000     -0.156092    0.38255600   -0.24386300
Se   14.59130000    4.04053000    5.25156000     -0.843944    0.62148700   -0.03083800
Se   18.11154000    3.87160000   14.56349000      0.293950    0.42470200    0.88456400
Se   14.23202000    9.96336000    6.75278000      0.040578   -0.69270100   -0.01685200
Se   17.81602000    9.85908000   13.04763000     -0.788626    0.35807500    0.06892100
Se   17.09791000   12.22482000    5.60323000      0.700540    0.18741000   -0.57843600
Se   15.90146000   18.92345000   15.98092000      1.100359   -0.15855000    0.51542500
Se   16.27823000    1.01381000    4.88776000     -0.263026   -0.10928700    0.30965700
Se   18.40269000    3.14294000   12.39795000      0.120837   -0.01864500   -0.68716200
Se    0.75864000    4.40150000    7.17273000     -0.372452   -0.34527900   -0.24105600
Se   22.20487000    3.45830000   14.63656000     -0.101366    0.87012400    0.22802700
Se   20.12955000   12.71794000    8.05825000     -0.395214   -0.88639600    0.34172400
Se   21.78067000   11.70888000   15.25141000     -0.492503    0.16511600    0.76823700
Se   22.05037000   12.87181000    6.56187000      1.089933   -0.06731200    0.78093400
Se   19.90749000   18.27360000   14.36202000     -0.296005    1.01500200    0.13191700
Se   20.04993000   19.98349000    8.07389000      0.324738   -0.69985500    0.02915300
Se   21.83884000   21.04134000   17.83070000     -0.363350   -0.39567100   -0.52403300
Se    3.36347000    3.47326000    5.51273000     -1.437041   -0.58893300   -0.01201500
Se    7.58119000    1.55596000   17.96009000     -0.118666   -0.41089900   -0.00333500
Se    0.48842000    4.84835000    0.34872000      0.261327   -0.43312200    0.74969400
Se    3.79289000    8.96431000    9.82139000     -0.585412    0.13751000    1.37087400
Se    0.43604000   12.47860000    2.91152000      0.115648   -0.85920800   -0.11969500
Se    2.64837000   15.67643000   14.56345000      0.151553   -0.15926600    0.96999100
Se    3.85478000   16.06683000    1.37175000      0.048967   -0.46355900   -0.53467800
Se    5.53260000   18.47431000   13.11644000     -0.389345    0.32525600    0.33347200
Se   10.58138000    0.47812000    2.83144000      0.412666   -0.85101600    0.62025100
Se   11.67280000    1.42916000   13.61139000      0.232749    0.51970700    0.75829200
Se   10.22861000    8.83252000    3.75241000     -0.483552   -0.67667500    0.03513800
Se    7.40532000    8.91761000   16.39286000     -0.549570    0.29202200    0.05793800
Se    9.63191000   12.33934000    3.69732000     -0.527910   -0.70640400    1.42010700
Se    9.49533000   12.47444000   11.94944000     -0.162528   -0.33763300   -0.62852300
Se    9.02330000   20.36961000    1.19779000      0.473880   -0.68614200    0.44906900
Se   11.32674000   19.21729000   14.62290000     -0.548108    0.52668300   -1.84644400
Se   18.56279000    0.44521000    7.60966000      0.824937    1.09745800   -1.14109600
Se   14.99331000    2.06358000   13.40921000     -1.412901   -0.24378700    0.42296200
Se   15.65803000    7.08490000    3.75446000      0.084112   -0.16915100   -0.51795700
Se   14.06952000    4.93673000   15.23914000      0.099495    0.00010300   -0.15669600
Se   15.44787000   11.85723000    2.25234000      0.067179    0.29684600    0.27568600
Se   16.76337000   17.09368000   13.00618000      0.746872    0.30226500   -0.36191700
Se   15.54038000   16.31039000    3.85759000     -0.281689   -0.42907700    0.01507000
Se   14.97410000   19.96914000   14.16894000      0.184055    0.15983600   -0.46431600
Se   22.64916000   21.96642000    5.21755000     -0.140484    0.33152700    0.17511000
Se   20.88729000    0.44726000   13.45111000      0.339757   -1.51215400    0.13942400
Se   20.82260000    3.74649000    3.44908000      0.001294    0.39611600    0.47669200
Se   20.70266000    9.02489000   14.74801000      0.046907    0.59019200   -0.46495800
Se    1.76076000   12.39255000    5.52885000     -0.053240    0.03887900   -0.29100800
Se   21.85062000   14.31488000   15.89592000     -0.829255   -0.47261900   -0.06423000
Se   21.28218000   18.68828000    4.36828000      0.057233    0.88517000    0.49709100
Se   21.59338000   18.69496000   10.68745000     -0.080557    0.60941000    0.00006600
Se    0.45439000    5.25249000    4.86767000      0.310984   -0.26041500    0.57028000
Se   20.87107000    5.64037000   13.84819000      0.192148   -0.51845500    0.43324000
Se   22.91726000    9.77224000    2.37304000      0.005238    1.30031100    0.47323700
Se    1.19355000   10.95068000   13.31801000      0.437262   -0.10155600    0.18596400
Se    1.96772000   13.98665000    1.58368000     -0.206448   -0.66516800    0.01451800
Se    1.50491000   20.94515000   12.72997000      0.148766   -0.32293800   -0.14256300
Se    4.34004000   22.90593000    3.19354000     -0.265791   -0.06471200    0.00788100
Se    5.25465000   19.46150000   15.28719000     -0.325414   -0.58622000   -0.32069600
Se    9.53487000    5.98779000    7.97862000     -0.554155   -0.35020600   -0.22351900
Se    7.22138000    4.90247000   12.69990000     -0.218030   -0.53202500    0.85192900
Se    5.43377000    6.98504000    4.32312000      0.435693    0.84971700    0.60155400
Se    7.89378000   10.23538000   11.86093000      0.425366    1.24205400    0.00307500
Se    7.66022000   16.63782000    2.92377000     -0.472448    0.09779200   -0.93420800
Se   11.99533000   14.29308000   13.46924000      0.014345    0.53116200    0.33381000
Se    7.49187000   21.54997000    6.00514000      0.151614   -0.63454200   -0.20459800
Se    7.75264000   22.32163000   13.87277000      0.145273   -0.48913800    0.00911800
Se   12.39085000    2.17359000    3.37775000      0.031327    0.13698900    0.03643700
Se   10.06088000    2.19773000   12.09881000     -1.098013    0.24366600    0.02606800
Se   13.69186000   10.38935000    2.87210000     -0.217233   -0.39811800    0.56143000
Se   12.24153000   10.22803000   13.37873000     -1.007694    0.19825400   -0.37822200
Se   11.77374000   15.23162000    3.26109000      0.691919    0.45150800   -0.82626900
Se   14.49586000   17.87333000   12.77797000     -0.573298    0.14891300   -0.12319900
Se   13.40092000   18.89244000    2.86473000      1.664554    0.41160200   -0.48070600
Se   14.13887000   22.61683000   15.39596000     -1.063279   -0.99713000   -0.49862300
Se   17.08273000    5.21977000    0.59261000      0.194820    0.24210400    0.05826400
Se   15.67240000    6.24026000   13.41499000      0.700295   -0.25671100   -0.38925300
Se   17.99495000    8.90565000    3.73167000      0.142479   -0.46523300    0.70956000
Se   20.54985000   13.46482000   12.86707000      0.174328   -1.03678400    0.71947400
Se   21.77077000   15.56571000    3.63738000      0.474216   -0.94344700   -0.61935700
Se   19.43116000   15.69203000   10.49179000     -1.756226    0.55411700   -1.44180700
Se   20.21317000   22.17818000    3.63211000     -0.603699   -0.02487800    0.21758100
Se   16.14940000   22.73629000   10.80889000      0.177581    0.25964600    0.51839000
