384
23.00800000 23.00800000 19.32000000
Ge    5.49505000    5.17589000   10.76599000      0.250839    0.41178300   -0.38644300
Ge    5.46827000    6.51411000    2.06764000      0.202184    0.86385600    0.18120600
Ge    1.73198000   11.35609000    7.99731000     -0.566014    0.22023900   -0.20166100
Ge    5.85401000   11.57174000   18.29837000     -0.653780   -0.16186500    0.08346400
Ge    4.34975000   14.98015000    9.38474000     -0.007147   -0.88681700   -0.86718500
Ge    8.14110000   17.76792000    0.78288000      0.857877    0.23593500   -0.63946500
Ge    9.17576000   19.79692000    9.83241000     -0.384714    0.37502600   -0.30213400
Ge    4.23353000    3.48145000   19.08340000     -0.038463   -0.64715200   -0.25567700
Ge    8.91042000    5.56845000   10.72073000     -0.173176    0.36488500    0.20680900
Ge   10.91325000    5.23875000    1.56926000      0.229050    1.09427900   -0.70378500
Ge   10.83839000   12.19536000   10.21280000      0.770340    0.33374600    0.09267100
Ge   11.71850000   12.33774000   17.76124000      0.453389    0.01911000   -0.06177100
Ge    9.64782000   16.51068000    7.80222000     -0.019623    1.52310800   -0.21812800
Ge   13.25524000   15.32246000    0.99914000     -0.123332    0.73159800   -0.90453100
Ge   10.67827000    1.86863000    9.43669000      0.729083    0.99534300    0.65008400
Ge   16.02448000   21.59903000    0.37968000     -0.144215   -0.56102200    0.25335800
Ge   19.31274000    5.42273000   10.33101000      0.126420    0.03875500    0.28523100
Ge   19.30383000    8.93686000   17.47956000     -0.179493    0.61840800   -0.50590600
Ge   21.59532000   14.39421000   10.68470000     -1.032767   -0.00628100    0.71391000
Ge   16.91356000   11.15713000   19.14746000      0.149601    0.28510100   -0.76225900
Ge   14.13519000   17.25375000    7.64876000     -1.245141    0.13955500   -0.25950800
Ge   18.32556000   13.82222000    1.42604000      0.316219    0.55565200   -0.83939500
Ge   19.88121000    0.66923000   10.22937000     -0.313475   -0.02751300   -0.20018600
Ge   18.14033000    2.79024000    0.26825000     -0.367949   -0.13068800    0.07859300
Ge    0.19766000    6.26078000    8.88989000     -0.540149    0.10352600    0.11721200
Ge   21.21667000    3.45140000    0.96027000      0.287165   -0.05102100   -0.53487400
Ge    1.37675000   11.34983000   10.89013000     -0.155468   -0.86494000    0.24916100
Ge    0.78838000   11.62242000   18.61369000     -0.239950    0.16282900   -0.37871100
Ge   22.84358000   14.82844000    8.48382000      0.435151   -0.14375000   -0.71951700
Ge    1.07967000   15.80989000   17.05970000     -0.718028   -0.70085700   -0.40897000
Ge   20.62946000   20.85075000   10.30849000     -1.384569    0.73388700   -0.36078300
Ge    2.60214000   21.35576000   19.27030000     -0.654232   -0.47259500   -0.01700500
Ge    5.86735000    8.67283000    8.25735000     -0.098715    0.53794900    0.54123900
Ge    0.99867000    7.36017000    0.44458000     -0.208332   -0.81578700    0.27882900
Ge   22.19807000    8.16984000    5.82775000      0.536496    0.04738300   -0.28834800
Ge    3.64094000   13.38190000   15.19460000      0.027558    0.09846300    0.69450900
Ge    3.96492000   17.70946000    3.11739000     -0.135131   -0.20186100    0.14749700
Ge    0.72389000   18.95680000   17.59263000      1.303261    0.82732000    0.94740100
Ge    4.74336000   19.07684000   10.20414000      0.435583    0.31550600   -0.51261100
Ge    3.64707000    0.19691000   16.63258000     -0.257123   -0.90926400    0.52279800
Ge    8.58784000    3.36256000    6.84521000     -0.996340    1.12465300    0.15503300
Ge    8.06896000    4.02466000   18.61343000      0.013584    0.46950400   -0.26000800
Ge    6.96718000   12.89882000    4.02057000     -0.128152    0.23457500    0.39608900
Ge    8.35994000    7.70918000    1.37791000     -1.256230    0.56485300    0.86775200
Ge    5.85878000   16.89468000    7.05626000     -0.202258    0.24387400   -0.51097200
Ge    8.90261000   14.76041000   18.38419000      0.123068    1.45441700   -0.74722400
Ge    9.82528000    0.55441000    6.14372000      0.112670   -0.88886300   -0.96107200
Ge   10.78942000   21.94460000   13.83283000     -0.218128   -0.11885700    0.00173800
Ge   12.93795000    6.44866000    9.08646000     -1.212132   -0.12471100   -0.09140900
Ge   14.49018000    6.80035000   17.07078000     -0.061607   -0.05625600    0.33212500
Ge   12.27054000    9.74775000    8.58239000      1.285613   -0.54592800    0.35235700
Ge   15.63042000   13.39688000   16.12478000     -0.028455    0.48096200    0.23511400
Ge   13.48734000   16.90368000    4.90250000     -1.171856    0.23322900   -0.22211600
Ge   14.33060000   18.06984000    0.83873000     -0.127255   -1.49105900   -0.60763200
Ge   14.13583000   22.11694000    8.12962000     -0.088897   -0.47776100   -0.62575500
Ge   16.84847000    1.59103000   14.80932000     -0.143611    0.46211700   -0.29979400
Ge   19.87106000    4.14015000    6.62932000     -0.596666    0.52152600    0.97374200
Ge   21.00045000    5.89850000   16.91370000     -0.800375    0.08348800    0.45143800
Ge   16.16093000   11.08400000    7.45440000     -0.311161   -0.24894000   -2.05906100
Ge   19.97882000   13.98669000   17.44763000      0.416954    0.18073400    0.29374100
Ge   18.82787000   16.64787000    5.22888000      0.105199    0.02877500    0.14629100
Ge   20.13874000   19.20626000   16.80100000     -0.391835   -0.49986200   -0.52618400
Ge   22.83864000    1.60664000    4.87643000     -0.053741   -0.03146000    0.45633500
Ge   19.22532000   22.05752000    0.43683000      0.081761   -0.03776700   -0.30419800
Ge    5.71776000    3.51350000    7.09013000     -1.069571   -0.22195700   -0.17945700
Ge    2.52233000    5.01118000   15.51336000      0.142151    0.58051900    0.36543700
Ge    2.80245000    5.92408000    4.79132000      0.658644    0.67743400   -0.05786300
Ge    3.61350000    9.75716000   14.16968000     -2.229763   -0.56071900   -0.26765200
Ge    1.21505000   15.09173000    4.44535000      1.487919    0.25976700    0.42325600
Ge    0.29298000   18.68500000   13.02961000      0.710150   -0.59221000    1.25009900
Ge    1.89110000    1.94809000    6.88549000     -0.484318   -0.48994700    0.81304500
Ge    4.53153000   16.70014000   16.06976000      0.310039    0.39162100    0.27383600
Ge   10.05523000    2.77279000    1.88077000     -0.289567   -0.55206800    0.55080700
Ge   10.32536000    2.30803000   16.64169000      0.109588   -1.46191600   -1.93251200
Ge    8.65015000    8.87891000    5.72049000     -0.575463   -0.57343600    0.62855400
Ge    9.69452000    8.23703000   13.95549000     -0.684271    0.59066100    0.75077000
Ge   10.73309000   13.83657000    5.22586000      1.210380    0.64181100    0.77422200
Ge   11.31885000   12.15863000   14.93861000     -0.196466   -0.14608100   -0.58065000
Ge    6.18954000   21.37078000    2.68442000      0.030890    0.00017100    0.42850800
Ge   10.37719000   17.95118000   16.79981000      0.029687    0.76981000    0.11057100
Ge   14.02238000    1.90285000    5.91720000     -0.317279   -0.06778000    0.47419100
Ge   10.97583000    5.62419000   14.98381000     -1.171130   -0.29495200   -0.31677300
Ge   14.96189000    7.10487000    6.23674000      0.227416   -0.47631300   -0.17585900
Ge   13.95593000    9.55293000   14.92487000     -0.571652   -0.22185900   -0.29839700
Ge   14.87473000   13.68459000    4.79386000     -0.417733   -0.12586300   -0.00867900
Ge   15.87396000   16.44527000   15.04915000     -0.157792   -0.13951200   -0.04656400
Ge   11.12493000   17.61030000    2.96996000      0.756226    0.34572800   -1.24890700
Ge   12.70384000   21.97225000   17.37462000     -0.558924   -1.16334000    0.16487900
Ge   17.56466000    5.51044000    4.16195000     -0.415110   -0.23794100   -0.09368400
Ge   20.79851000    2.77156000   12.60772000      0.562741   -0.06638700   -0.21130400
Ge   19.54508000    8.56863000    6.66844000     -0.176420   -0.31227700    0.22555800
Ge   18.63574000   11.91318000   14.58353000      0.212413   -0.99560800    0.16100600
Ge   22.81135000   15.09684000    0.95140000      0.512873   -3.01993600    1.27257800
Ge   18.67687000   15.18342000   13.35109000      0.155193   -0.17945400   -0.31610600
Ge   20.06977000   20.58218000    5.71177000      0.131003   -0.19173900    0.09983000
Ge   22.51029000   21.27314000   15.15595000      0.385188   -0.73594100    0.33931700
Ge    4.55475000    2.63829000    3.39345000     -0.527683   -0.02625300   -0.58987400
Ge    5.56044000    3.85366000   15.32875000      0.024316    0.36326800    0.21021100
Ge    4.28494000    9.37147000    4.39283000     -0.100072    0.70815300    0.32284300
Ge    4.99999000    8.32487000   12.37652000      0.007262   -0.45803200   -0.92771200
Ge    6.19437000   14.97068000    1.31624000     -0.489443   -1.02244200   -0.19647300
Ge    3.31451000   14.60458000   12.55075000      0.313217   -0.07708200    0.07090900
Ge    4.37044000   22.54931000    6.02609000      0.233011   -0.06625600   -0.36539200
Ge    7.22354000   20.00549000   12.49923000     -0.763631    0.66549500    0.21285900
Ge   12.14932000    4.38018000    5.29275000      0.509010    0.79390100   -0.99073500
Ge    7.48400000    1.96156000   12.89322000      0.196720    0.04248200   -0.74083500
Ge   11.97575000   10.10701000    1.02406000     -0.399959    0.27843000    0.66871700
Ge   13.24928000    7.19358000   13.59813000      0.177610    0.21489400   -0.23226300
Ge    9.70683000   13.76079000    1.57199000      0.479870    0.14654100    0.62172000
Ge    8.82714000   15.31695000   11.38362000      0.533642   -0.12020100    0.78426700
Ge   12.26879000   21.49140000    1.84898000     -0.583277   -0.57849200   -0.75687600
Ge   11.93143000   18.98889000   11.63946000     -0.051381   -0.80698000   -0.02300200
Ge   21.56858000    0.73617000   17.40660000      0.425381   -0.09443800    0.59259500
Ge   14.04563000    4.84906000   11.51588000     -0.476203    0.05595900    0.71084300
Ge   18.36086000    7.89940000    1.42880000     -0.583164    0.36735900    0.12854900
Ge   15.85031000    8.15231000   10.10666000      0.030387   -0.17640800    0.51243200
Ge   17.71662000   11.32879000    3.06838000      0.961364    0.01923300    0.55069300
Ge   19.46624000   14.98525000    7.97342000     -1.264543   -1.81988200   -0.70353500
Ge   17.97975000   17.96037000    3.06291000      0.414226    0.55670000   -0.46828400
Ge   15.91834000   20.10220000   11.55548000     -1.447692    1.05018300   -0.27622800
Ge    0.46599000    0.49550000    2.40761000     -0.059047    0.01488600   -1.02956800
Ge    0.56882000    0.19210000   12.01788000     -0.424508    0.22155300   -0.32793300
Ge   20.12473000    6.29753000    3.84824000      0.047943    0.16270600   -0.29348700
Ge   22.38500000    9.25766000   12.98388000      0.877186   -0.19209400    0.77458300
Ge   21.02936000   13.00315000    3.99119000     -0.092325   -0.00201000    0.35099000
Ge    0.88114000   17.37172000    9.33307000     -0.312705   -0.25566600    0.26438300
Ge    2.51870000   20.55702000    3.54874000      0.112395   -0.21498000    0.10681400
Ge   20.86812000   16.74693000   12.67219000     -1.056961   -0.15196200   -0.64358200
Se    0.79670000    1.14712000   18.60517000     -0.119144   -0.03622500   -0.00867500
Se    1.54099000    3.27668000   11.67153000     -0.997408    0.73016200    0.17129800
Se    0.19288000    7.18210000    2.83363000     -0.404375   -1.49506900   -1.06831100
Se    0.01444000    6.77742000   12.84897000     -0.602980    0.89786800   -0.52937600
Se    3.93655000   10.69177000    0.90114000      0.360835    0.47243900   -0.47316500
Se    1.83043000   13.67254000    9.75608000     -0.935514   -0.06140200   -0.31720800
Se    1.45703000   17.93002000    3.31831000      0.492712   -0.04029700    0.34956800
Se    0.80873000   19.87995000    9.59198000      0.996256    0.01383200    0.00639300
Se    6.93910000    2.18178000    1.39587000      0.101831    0.27396900    0.40311700
Se    6.83668000    1.68238000    9.97533000     -0.142160   -0.81514700    1.30521600
Se    7.51694000    5.17378000    1.88317000      0.145691   -0.12118100    0.54691800
Se   10.53548000    6.93999000   12.07210000     -0.088637    0.27024300    0.20387600
Se    8.82536000   11.57179000    0.99346000     -0.621890   -0.03701600   -0.25947900
Se    5.84763000   14.69060000   12.91453000     -0.526436   -0.46289100   -0.98261900
Se    4.13518000   19.97304000    1.46556000      0.245025   -0.69723600   -0.30285200
Se    8.97178000   18.48468000   12.04240000      0.672263   -0.78803900   -0.27742800
Se   13.92379000    3.67422000    1.08213000      0.055820    0.58453800   -0.92560000
Se   12.91749000    0.61558000    9.98293000      0.002090    0.03121600    0.04422500
Se    9.51245000    6.62139000   19.03631000      1.658395   -0.75967000   -0.58127700
Se    9.48401000    9.63499000    9.34831000     -0.273017    0.69618000   -0.09921000
Se   12.29628000   12.86771000    0.61062000      0.001201   -0.24364500    1.44477400
Se   13.52674000   11.52132000    9.95182000     -1.314665    0.17054100    0.00190700
Se   15.68539000   15.02646000    1.76363000      0.192852   -0.03024400   -0.56840400
Se   11.58851000   17.95219000    8.19146000      0.463448   -0.21325100    0.16205600
Se   16.43785000    3.38667000    2.45292000      0.958691    1.14363100    0.41254700
Se   15.58011000    2.86034000   11.30715000     -0.424961   -0.37503600    0.52310200
Se   17.13765000    6.62705000   17.48313000     -0.095778    0.18996300    0.39433200
Se   20.91896000    7.19963000   11.47053000      0.305207   -0.25694100   -0.10752600
Se   19.17026000   10.13927000    0.40503000      0.262802    0.51779300    0.90340300
Se   17.29447000   15.62342000    6.84751000      0.365397   -0.11483000    0.48879300
Se   19.09865000   16.64736000    0.91828000     -0.050796   -0.56248700    0.43265600
Se   17.63778000   18.85111000   10.56048000      1.222474   -0.77228100    0.24988600
Se    3.65648000    4.84622000    1.75017000     -0.227524   -0.55142900    0.85539600
Se    3.38766000    6.36998000   11.74350000      0.348190    0.59588500   -0.21494600
Se    5.52046000   10.80265000    2.71736000     -0.240149   -0.50090700   -0.55323300
Se    5.13820000   13.16994000   10.91515000      0.294756    0.11498200    0.66422200
Se    3.95428000   15.17057000    3.77726000      0.368703   -0.07048600    0.19749400
Se    3.18328000   16.79148000   10.40958000     -0.486937    0.43826500    1.01847100
Se    4.02035000    0.27018000    0.39270000      0.240529    0.27527100    0.17254300
Se    6.90850000   21.21967000   10.39665000      0.151116   -0.75973000   -0.29132800
Se   10.55807000    6.31454000    3.87165000      0.372343   -1.13596400    0.20067200
Se    7.61415000    3.76429000    9.35461000      0.275562   -0.08790200   -0.82709500
Se   10.35548000   10.45409000   17.48671000      0.624903   -1.19476500   -0.52598600
Se    7.41336000   10.74768000    8.52200000      0.026741   -0.11676200    1.00634900
Se   10.93717000   17.17383000    0.43783000     -0.943607   -0.02812000    0.26006800
Se   11.49419000   15.05378000   11.16309000     -0.414449   -0.63760100   -0.13136200
Se   13.95083000    0.16838000    2.15603000      1.369661   -0.32496200   -0.14510500
Se   11.99200000   21.36372000   11.67575000     -0.170627    0.54285200    0.33339100
Se   13.31618000    6.04594000    0.93354000     -0.450985   -0.69979800    0.33339300
Se   17.83556000    6.95680000   11.94794000     -0.662465    0.22511400   -0.42114000
Se   15.85364000    9.02782000    0.50374000     -0.767213   -0.52115700   -0.09916800
Se   15.27909000   10.52809000   13.13678000     -0.545826    0.31222900   -0.54077900
Se   18.48531000   14.51887000    3.71009000      0.760178   -0.50292400    0.83132700
Se   14.55057000   13.97253000    9.35253000     -0.927102    1.07073100    0.50068300
Se   17.57815000   22.76608000    2.15746000     -0.058848   -0.28957800   -0.70735900
Se   13.96017000   19.70391000    9.05373000      0.149092    0.44346800    0.89347000
Se   21.20702000    0.73540000    1.31309000     -0.273512    0.34837600    0.25598300
Se   22.59000000    4.51036000   10.75628000      0.069126   -0.66984000    0.59369800
Se   20.31416000    6.12514000    1.07569000     -0.177128    0.57244500    0.85149900
Se   22.03596000   10.20158000   10.89843000      0.047013    0.58851300   -0.78381200
Se   21.57430000   12.94291000    0.22238000      0.404487    0.72613500   -0.20800900
Se    0.12407000   16.04053000   12.33894000      0.831083   -0.04697200   -0.20220300
Se    0.57779000   21.07103000    2.00679000      0.309859    0.27038500   -0.32233600
Se   19.86060000   21.12053000   14.21789000      0.485887   -0.21779800    0.19463700
Se    4.17056000    4.97934000    8.55220000      0.249352    0.08939300   -0.09680000
Se    0.47680000    6.41772000   16.39799000      1.135999    0.20441500   -0.26303600
Se    4.12876000   11.23229000    8.46817000      1.065656   -0.54002700    0.77216700
Se    4.03118000    8.63385000   17.34032000     -1.165995   -0.45471900    0.25358000
Se    3.66022000   18.39009000    7.86993000      1.449672    0.56884900   -0.74853700
Se   22.59744000   17.99871000   15.76106000     -0.373710   -0.73442600   -0.47289500
Se    3.48890000   22.03040000   11.85568000     -0.049295    0.27711800   -0.14563100
Se    8.23471000    0.01949000   16.44773000      0.661973   -0.48922500   -0.45981700
Se    6.32863000    3.84799000    4.41245000      1.222014    0.45938900    0.56925800
Se    5.47478000    5.09077000   17.77024000      0.637164   -0.31485300   -0.18131700
Se    6.72910000   10.26463000    5.39057000     -0.612332    1.31750200   -0.05653500
Se    4.44732000    6.74402000   15.15972000     -0.355693   -0.18359300    0.48097600
Se    6.37406000   16.27397000    9.37028000     -0.029785    0.84609400    0.77983400
Se    6.69505000   16.19263000   18.53935000      0.232381    0.44683100   -0.41628600
Se    8.05946000   18.60614000    7.89624000      0.340709   -0.90412500   -0.35093800
Se    8.12660000   22.97474000    1.72220000     -0.635032   -0.95775400   -0.25073300
Se   14.64499000    1.93791000    9.00409000     -0.141993    0.44581200   -0.33867500
Se   12.38436000    4.64417000   16.61721000      0.333248   -0.85941900    1.30646100
Se   12.96916000    8.14758000   10.96178000      0.928419    0.24312400   -1.22611700
Se   13.65546000   11.73640000   16.38457000     -0.102631   -0.27203400   -0.17170200
Se   13.25872000   14.89756000    6.68514000      0.444184    0.68873700   -0.51923900
Se   13.81513000   15.71868000   17.26726000      0.000958   -0.57773600    0.00185700
Se   12.47970000   21.70488000    5.89750000      0.476211    0.67303300    0.80035500
Se   17.36662000   21.44796000   17.28342000      0.234090    0.31717200    0.88428600
Se   19.32447000    3.06829000    9.33065000     -0.096349    0.02016500   -0.57272700
Se   19.83821000    3.48455000   17.82285000      0.222260   -0.17854500   -0.00579200
Se   17.85443000    9.70230000    8.23558000      0.643615   -0.86363900    0.90043300
Se   17.28389000   10.37697000   16.68354000      0.183672    0.54866000   -0.37972700
Se   14.99990000   16.50124000    9.59118000      0.870773   -0.79563200    1.31988000
Se   18.11226000   14.99877000   15.82307000     -0.438027    0.48834700   -0.36898600
Se   18.00201000   18.81685000    8.19185000      0.533608    0.47828800   -0.19288000
Se   20.10418000   19.62189000    2.33359000     -0.228615    0.02307900    0.76128700
Se    4.58843000    1.26002000    8.08062000     -0.203639   -0.54297700   -0.50240700
Se   22.99564000    4.12351000   17.30237000      0.916385    0.16102500    0.30313700
Se    6.84041000    7.57151000   10.34274000      0.228633   -1.24193400    0.82251900
Se    3.34662000    6.89823000   19.31415000      0.208291    0.77682900   -0.81877200
Se    3.58530000   14.56535000    6.84741000      1.161063    0.04389800    0.52783600
Se    4.59588000   14.54997000   17.42028000      0.171760   -1.92141900   -0.49518400
Se    3.34550000   21.15037000    9.61475000     -0.185548   -0.06151800   -0.28155600
Se   22.20117000   16.78167000   19.04424000     -0.015062    1.83305400   -1.20033800
Se    9.27390000    0.03297000    8.68195000     -1.092945   -0.50049600   -0.17586200
Se   10.68584000    3.16452000   18.78444000      0.245533    0.70450200    2.16744100
Se   11.71081000    4.45318000    9.86271000     -0.196716    0.53343300   -0.05240600
Se    6.46745000    8.42636000   18.87698000      0.296010    0.26288800   -0.04103600
Se   10.09601000   13.19320000    8.06305000      1.246821   -0.69759300   -0.17108700
Se    8.54430000   12.41010000   17.98767000     -1.185758   -0.79930000   -0.06334700
Se   10.93762000   21.46621000    8.15293000      0.527083   -1.01769900   -0.49261700
Se   11.58838000   14.43677000   16.65822000     -0.052242    1.41193700   -0.20470000
Se   17.06357000   21.77276000    8.51013000      0.598958    0.66305300   -0.43434300
Se   15.40785000    3.94396000   18.43335000     -0.426268   -0.13243600    0.37877000
Se   15.16917000    5.69560000    9.46403000      1.182359    0.23067700   -0.79895800
Se   13.48197000    9.31605000   18.67954000      0.626615   -0.32482200    0.13506100
Se   16.24634000   12.41105000    9.40162000      1.241692   -0.04842300    0.80344600
Se   16.35657000   13.95301000   18.54614000     -0.131880   -0.44856200   -0.12559700
Se   14.94681000   18.70756000    5.92942000      0.434110   -0.17311600    0.33081800
Se   16.50126000   18.90704000    1.26462000      0.776083    1.35717000   -0.56408800
Se   22.23015000   22.72185000    9.70672000      0.399138    0.17422100    0.06981800
Se    0.01221000    0.70490000   15.29890000     -0.101015    0.01266000   -0.11900600
Se   20.33819000    6.35132000    8.17406000      0.252296    0.21537500   -0.43159300
Se   21.85433000    8.06495000   18.95703000     -0.604635    0.37485600   -0.62452900
Se   21.53206000    9.71610000    7.64363000      0.179707    0.06857400   -0.08635200
Se   22.05862000   10.19007000   17.26758000     -0.078515    0.33764300    0.13720000
Se   20.85912000   16.08695000    6.54927000      0.962832    0.89173500   -0.72545900
Se   19.03260000   16.66417000   17.66222000     -0.083603   -0.25078600    0.39830100
Se    2.05428000    2.09981000    9.82579000      0.752299   -1.03683800   -0.72846700
Se    3.06478000    2.36438000   15.42086000      0.310680    0.11364600   -0.23429100
Se    1.63511000    8.27338000    7.46578000     -1.444002    0.52539100    0.09986000
Se    1.93688000    9.23406000   16.16248000      0.533094   -0.33259900   -0.05853400
Se    1.49642000   16.48613000    6.93275000     -0.149326   -1.03795100   -0.30470600
Se    1.39091000   12.74800000   16.23303000     -0.146027    0.23334300    0.99562600
Se    0.55493000   18.47170000    6.28145000     -0.528011    0.81442100   -0.52763000
Se    2.50156000   20.72514000   16.13351000     -0.246057    0.25445900    0.56621200
Se    7.47852000    0.89097000    5.09573000     -0.334253   -0.30932400    0.35362500
Se   13.06868000    0.73143000   18.96736000     -0.136545   -0.01539300    0.58779800
Se    7.42364000    6.93790000    7.07069000      0.563919    0.31034000   -0.97987900
Se    7.33011000    7.40238000   14.29149000      0.358265   -0.12561700    0.27110900
Se    7.31221000   14.13370000    6.45327000     -0.514205   -0.10293800   -1.34737900
Se    8.60316000   16.83090000   14.91517000      0.331746    0.33724500    0.18134900
Se    4.66769000   19.86982000    5.87533000     -0.301224   -0.13663800    0.82454900
Se    8.29851000   14.69623000   15.66949000      0.288541   -0.53946700    0.61380800
Se   15.11062000   21.93606000    4.74833000     -0.361726    0.36761500   -0.54650800
Se   15.09490000    1.54879000   16.77616000     -0.275008   -0.32242500   -0.54225800
Se   12.31692000    7.04287000    6.70600000      0.409854   -0.38858300    0.37550000
Se   10.73055000    7.78539000   16.15970000      0.093473   -0.01804800   -0.64517500
Se   12.91931000   11.87826000    4.60625000     -0.215081   -0.18154000   -0.20469900
Se   14.57109000   14.38967000   13.61103000     -0.051755   -0.20779200   -0.24687100
Se    9.31015000   15.93740000    5.48512000     -0.355921   -0.06005700   -0.14947100
Se   13.54833000   19.85347000   18.73887000     -0.254374    1.26512000   -0.79794800
Se   20.37116000    1.82824000    5.11564000      0.198986   -0.19991400   -0.30061200
Se   18.52195000    0.59326000   17.70911000     -0.233821   -0.48867300    0.00547000
Se   17.28606000    4.96709000    6.57085000      1.111919   -0.22780700   -0.49141200
Se   18.78582000    6.89367000   15.79220000     -0.616402   -0.03103600   -0.54979400
Se   21.03047000    9.61406000    3.58865000     -0.840878    0.29147800    0.43041800
Se   17.03909000   13.29712000   13.34507000     -0.191802    0.20542500   -0.59303200
Se   17.87519000   19.60384000    5.55371000     -0.728287   -0.15984100   -0.52686200
Se   17.61385000   22.54281000   13.34071000     -0.608303    0.12544500   -0.43199500
Se    3.62704000    7.23346000    7.09940000      0.117274   -1.16373100   -1.08916200
Se    3.75399000    4.44194000   13.33739000     -0.397654    0.13637800   -0.20930200
Se    1.72203000    8.44661000    3.98119000      1.109077    0.42850100    0.85884700
Se    5.32813000   10.53929000   15.50338000      1.028946    1.78018500    0.68481700
Se    5.29906000   12.64402000    6.70555000     -0.544639    0.64701400   -0.45205800
Se    3.01008000   17.04845000   18.12836000      0.021879    1.24028800    0.01067300
Se    1.70767000   21.59297000    6.07341000      0.422514   -0.05226700   -0.02571400
Se    4.36722000    0.48918000   14.29347000      0.271666    0.15839300    0.01750700
Se   10.91239000    2.84554000    6.79137000      0.888863   -0.83447000    0.65710800
Se    8.78778000    4.09854000   16.09639000     -0.194225    0.64219500   -0.91650700
Se   10.22262000   10.26113000    7.08576000     -0.000619   -0.25091800   -0.76934200
Se    8.78011000   10.64394000   14.43585000     -0.380360   -0.92452500   -0.00394700
Se    8.44554000   14.63219000    8.94628000     -0.409189    0.23175300    0.92363100
Se   12.78422000   18.30710000   16.03163000     -1.000811   -0.05022900   -0.39433900
Se    9.40809000   19.28269000    3.34501000     -0.469930    0.79944600    0.12764800
Se   10.30449000   20.79960000   17.25299000      0.364721    0.41766800   -0.04279800
Se   14.70812000    4.16388000    5.20168000     -1.161626    0.19127800    0.25132300
Se   18.18637000    4.10960000   14.61263000      0.341551   -0.71097000   -0.14280200
Se   14.27918000    9.55568000    6.82989000     -0.067643    0.55893100    0.45456300
Se   17.49571000    9.93173000   13.24613000      1.047342   -0.40644700    0.27339600
Se   17.10880000   12.39415000    5.46093000     -0.354439   -0.22746900    0.58971200
Se   16.00501000   18.78956000   15.96687000     -0.170026    0.94537100   -0.38392100
Se   16.11045000    1.11273000    4.99273000      0.075286   -0.64837100   -0.03485900
Se   18.35948000    3.13020000   12.30851000      0.210640    0.50625900    0.53143100
Se    0.50611000    4.26631000    7.30939000     -0.484490   -0.52576700    0.68209100
Se   22.22245000    3.74975000   14.79225000      0.600926   -1.68351800   -0.51476400
Se   20.11228000   12.56057000    7.61445000     -0.134499    0.88149800    0.40389800
Se   21.65403000   11.88023000   15.30200000     -0.243648    0.44564900    0.40861700
Se   22.54131000   12.88742000    6.75942000     -0.727561    0.11683100   -0.40300700
Se   19.73143000   18.07712000   14.26677000     -0.358550    0.81465800    0.47291300
Se   20.48909000   19.44289000    8.03755000     -0.293599    0.02549000    0.30693900
Se   21.86599000   20.83006000   17.70434000      0.058671    0.90923600    0.08475400
Se    3.23041000    3.38667000    5.54569000      1.262566    0.14069200   -0.58962000
Se    7.68908000    1.47765000   18.16182000     -0.902170   -0.08886700   -0.09921300
Se    0.71903000    4.83849000    0.31203000     -0.436073   -0.56753100    0.18435600
Se    3.75018000    8.71332000    9.81151000     -0.256239    0.53699800    1.48284400
Se    0.49523000   12.17878000    2.76602000      0.113070    3.15083300    1.68551200
Se    2.58347000   15.79363000   14.74678000     -0.306741    0.37468500   -0.21925800
Se    3.72460000   15.82086000    1.25192000     -0.024277    0.26852900    0.66638500
Se    5.32617000   18.30566000   13.30209000      0.510330    0.64990200   -0.63441000
Se   10.53422000    0.31616000    2.94533000     -0.196535    0.53526900    0.30971900
Se   11.75690000    1.34651000   13.79239000     -1.002059   -0.21659700   -0.49353500
Se   10.08190000    8.59641000    3.83614000      0.178336    1.13153100   -0.66577400
Se    7.05918000    9.00360000   16.55408000      0.876967   -0.28046200   -0.03996100
Se    9.45073000   12.32957000    3.89162000     -0.529467   -0.66224400   -0.94588900
Se    9.20487000   12.49487000   12.21150000      1.142657    2.14719000   -0.76195300
Se    9.24653000   20.52649000    1.23128000     -0.090772   -0.54704000    0.43487200
Se   11.08303000   19.08171000   14.28395000      0.691863   -0.20123100    0.55973000
Se   18.71525000    0.38228000    7.64342000     -0.465752   -0.76123800    0.95327900
Se   14.66560000    2.26989000   13.59260000      1.024738    0.07771400   -0.56064700
Se   15.65287000    7.02344000    3.65379000     -0.072547    0.00385800    0.53156000
Se   14.16906000    5.27753000   15.07056000      0.456066   -0.47669400    0.28127700
Se   15.61781000   11.94757000    2.04669000     -0.822253   -0.09328600    0.24206700
Se   16.62840000   17.16267000   12.76684000      0.029083   -0.26081400   -0.15440500
Se   15.56103000   16.23324000    3.91785000      1.239174    0.10970100   -0.17398500
Se   14.90223000   19.93129000   14.09083000      0.478424   -0.65997900    0.60116400
Se   22.52683000   22.15851000    5.33120000     -0.023511    0.24323300   -0.03637000
Se   20.84329000    0.26884000   13.38136000      0.366345    0.20586500   -0.27245000
Se   20.84526000    3.92315000    3.44496000     -0.505387   -0.66725800    0.13508500
Se   20.77132000    8.89667000   14.67861000     -0.309835    0.85111100    0.05559900
Se    1.89190000   12.37916000    5.64643000      0.253265   -0.19574600    0.01168500
Se   21.69026000   14.80491000   15.87429000     -0.059849   -0.79162100   -0.09225000
Se   21.21521000   18.70915000    4.48312000      0.353131    0.11388900   -0.43377900
Se   21.92988000   18.94088000   11.07327000     -0.944185   -0.58060700   -0.68191000
Se    0.51825000    5.12875000    5.15036000     -0.910260    0.47090600   -0.38187300
Se   20.73187000    5.32353000   14.12606000     -0.605869    0.81293300   -0.21035600
Se    0.05317000   10.12607000    2.40507000     -0.382582   -3.36644400   -1.27407100
Se    1.32748000   11.14866000   13.47874000      0.038820   -0.35323300   -0.40072300
Se    1.97972000   13.75264000    1.66798000     -0.097642    0.49153000   -0.84480900
Se    1.48877000   20.93627000   12.74854000      0.075191    0.35296500    0.48809400
Se    4.04798000   22.87355000    3.06891000      0.375176    0.20145200    0.49229900
Se    5.51060000   19.34787000   15.34886000     -0.480704    0.03888000    0.40599300
Se    9.39703000    5.86822000    7.71381000      0.265794   -0.60122500    0.54285300
Se    7.21829000    4.61500000   12.93397000      0.296864    0.14111600   -0.48518300
Se    5.62493000    7.37191000    4.53463000      0.147537   -1.09760400   -0.99032400
Se    8.08031000   10.56965000   11.91058000     -1.031563   -1.20128500    0.24250700
Se    7.59514000   16.36338000    2.63936000      0.160535    0.25524300    1.15756300
Se   12.17248000   14.58132000   13.47939000     -0.783238    0.10818700    0.37817000
Se    7.29245000   21.47616000    5.60643000     -0.264429    0.84922900   -0.52353200
Se    7.82711000   22.19302000   13.64997000      0.256874   -0.33696300    0.25411400
Se   12.26411000    2.00837000    3.65050000      0.366878    0.58676700    0.05601100
Se    9.93965000    1.95402000   11.96147000      0.331788   -0.17873000    0.83496700
Se   13.74879000   10.25719000    3.00504000      0.107221    0.27221100    0.11196100
Se   12.00425000   10.42669000   13.37627000      0.891823   -0.75473700    0.11272700
Se   12.07970000   15.26192000    3.29927000     -0.358546   -0.69715400   -0.06075100
Se   14.11640000   17.51495000   12.75172000      0.733707    0.49243500    0.37272300
Se   13.38797000   19.03142000    2.74628000     -1.167251    0.09168500    1.69263900
Se   14.00648000   22.76342000   15.33246000     -0.175189    0.20141000    0.49000000
Se   17.24463000    5.21492000    0.63954000     -0.224225   -0.75038100    0.45777200
Se   15.76113000    6.03173000   13.15750000      0.516967    0.72123700   -0.51110000
Se   18.12848000    8.92525000    3.87206000      0.246849   -0.08092700   -0.24658500
Se   20.93088000   13.48061000   12.92201000     -0.547193    0.23113800   -0.24134900
Se   22.07606000   15.20881000    3.32968000     -1.416956    0.76398400   -0.38702600
Se   19.29248000   15.69600000   10.14016000      0.638259    0.06915200    1.21875900
Se   20.02786000   22.00630000    3.56380000     -0.287436    0.01977000   -0.12759200
Se   16.25753000   22.69873000   11.10574000      0.578506   -0.55222900    0.46369200
