384
23.00800000 23.00800000 19.32000000
Ge    5.59874000    5.12890000   10.75836000     -0.306595    0.54444000   -0.26706800
Ge    5.47128000    6.62520000    2.08899000     -0.194629    0.68578700    0.05678600
Ge    1.74222000   11.31059000    8.04365000     -0.929524    0.26481200   -0.45576600
Ge    5.72322000   11.49405000   18.33287000     -0.509079    0.01768000    0.00279800
Ge    4.38927000   14.93912000    9.44271000     -0.206104   -0.59839400   -1.58977900
Ge    8.21876000   17.80730000    0.76407000      0.500790   -0.11454000   -0.10777000
Ge    9.06856000   19.80304000    9.68635000      0.438206    0.58561300    0.77239600
Ge    4.22848000    3.46736000   18.98087000     -0.705785   -0.89045000    0.58537600
Ge    8.81467000    5.67658000   10.62584000     -0.014719    0.39270700    0.30216000
Ge   10.85966000    5.22072000    1.64780000      0.599131    1.37556800   -1.18708900
Ge   10.80379000   12.29323000   10.34128000      1.235723    0.30425300   -0.80321700
Ge   11.82246000   12.33237000   17.72939000     -1.092173    0.67133200    0.54612600
Ge    9.60206000   16.65180000    7.89559000     -0.201994    0.47790100   -1.31880500
Ge   13.31450000   15.29390000    1.07656000      0.037407    0.91092600   -0.93441700
Ge   10.71264000    1.86631000    9.44384000      0.148700    0.53166100    0.30897000
Ge   16.09921000   21.53260000    0.29657000     -0.338720   -0.41669500    0.40932100
Ge   19.32891000    5.43699000   10.32963000      0.131066   -0.36870600    0.13928900
Ge   19.25713000    8.86463000   17.47828000     -0.082814    0.58112400   -0.36965500
Ge   21.63656000   14.38958000   10.64653000     -1.254595   -0.02681400    0.93461200
Ge   16.92032000   11.05517000   19.16956000     -0.564616    0.72592900   -0.83882200
Ge   14.05856000   17.28720000    7.70217000     -0.360133    0.01763900   -0.04845900
Ge   18.40848000   13.80170000    1.45784000      0.045807    0.68648900   -0.56847700
Ge   19.93027000    0.66283000   10.35340000     -0.430346    0.06834500   -0.30153700
Ge   18.11068000    2.75022000    0.16683000     -0.428619   -0.40323100    0.25816100
Ge    0.16719000    6.34356000    8.99288000     -0.342486    0.05345500   -0.30493200
Ge   21.37200000    3.37082000    0.83249000      0.045545    0.31608400    0.08125700
Ge    1.41411000   11.36731000   10.94101000     -0.205404   -0.94692300   -0.11529200
Ge    0.68014000   11.63961000   18.68784000     -0.205998   -0.03848600   -0.48073300
Ge   22.87100000   14.94026000    8.49261000     -0.050881   -1.03294700   -0.78547300
Ge    0.97138000   15.77889000   17.05360000     -0.450949   -0.48396900    0.06132900
Ge   20.57646000   20.86963000   10.28621000     -0.608379    0.17231900   -0.58868300
Ge    2.61850000   21.22352000   19.24922000     -0.177353    0.13362300   -0.08399200
Ge    5.87822000    8.61291000    8.18450000     -0.469232    0.88436800    0.67630600
Ge    0.96388000    7.28045000    0.42046000     -0.626560   -0.55160100    0.14554300
Ge   22.16490000    8.10516000    5.81758000      0.432956    0.22350400   -0.10610100
Ge    3.60290000   13.43355000   15.16129000      0.049869   -0.17030200    0.30295700
Ge    3.99123000   17.60449000    3.22059000      0.479096   -0.15372900   -0.04353400
Ge    0.71187000   19.01998000   17.58678000      1.502346    0.79191600    1.24777200
Ge    4.64385000   19.02891000   10.29305000      0.633251    0.52995300   -0.36153200
Ge    3.61636000    0.11260000   16.52045000     -0.193257   -0.57439000    0.65645100
Ge    8.54037000    3.32587000    6.92795000     -0.606272    0.73198000   -1.08155700
Ge    7.96001000    4.12425000   18.69103000      0.238990   -0.09206400   -0.41162900
Ge    6.90996000   12.91395000    3.93223000     -0.116180    0.25383700    0.52345600
Ge    8.29991000    7.72413000    1.42477000     -0.830922    0.68749800    0.95551800
Ge    5.76259000   16.80966000    7.14828000     -0.105306    0.09184300   -1.51904100
Ge    8.92902000   14.82160000   18.46326000      0.223633    0.69943000   -1.34421100
Ge    9.77082000    0.62784000    6.17911000      0.418332   -1.01401900   -0.51404000
Ge   10.67193000   21.89101000   13.83937000      0.078253   -0.18941200   -0.13342300
Ge   12.95625000    6.43457000    9.05124000     -0.384936    0.23820800   -0.13140900
Ge   14.42368000    6.81572000   17.20469000     -0.016061   -0.52270100   -0.12358900
Ge   12.30437000    9.76057000    8.56945000      1.045359   -0.33368800    0.80534100
Ge   15.66893000   13.39905000   16.02966000     -0.005225    0.41156900    0.32806200
Ge   13.43499000   16.96781000    4.77867000      0.101032    0.30944700   -0.06687800
Ge   14.31281000   18.15985000    0.87354000     -0.180298   -2.08793100   -0.02664900
Ge   14.14370000   22.05790000    8.16460000      0.033846   -0.40988800   -1.02799300
Ge   16.86632000    1.53729000   14.75102000     -0.582572    0.87440900    0.02831500
Ge   19.88395000    4.18967000    6.60691000     -0.647543    0.32002600    0.73949200
Ge   20.96811000    5.99497000   16.97019000     -0.612095   -0.01596200    0.32830800
Ge   16.14843000   11.08866000    7.35028000      0.273348   -1.02779100   -1.29591700
Ge   20.04505000   14.06853000   17.42024000     -0.428914   -0.18262300    0.91263700
Ge   18.90204000   16.71867000    5.15710000     -0.402352   -0.08803700    0.29890700
Ge   20.20484000   19.11061000   16.69353000     -0.636227   -0.86145400   -0.23907800
Ge   22.92932000    1.67863000    4.69425000     -0.450082    0.08237200    1.09752000
Ge   19.24463000   22.02207000    0.43588000     -0.364889    0.41762500   -0.22480900
Ge    5.78442000    3.45237000    7.15411000     -1.472831    0.05920200   -0.45106700
Ge    2.44459000    5.08320000   15.46869000      0.553580    0.10388500    0.15107800
Ge    2.73551000    5.92711000    4.74146000      0.548118    0.33044200    0.08433800
Ge    3.51498000    9.85856000   14.03133000     -1.111970   -0.29661100    0.50846000
Ge    1.22267000   15.09649000    4.48129000      1.253627    0.25213000    0.17859300
Ge    0.38759000   18.74183000   12.92720000      1.426052   -1.07595100    2.15520500
Ge    1.87187000    1.99909000    6.87561000     -0.853479   -0.70225400    0.88317300
Ge    4.45811000   16.66129000   16.11767000      0.784895    0.50233900    0.53694100
Ge   10.05980000    2.82959000    1.85837000     -0.742722   -1.10524800    1.57858200
Ge   10.38770000    2.24982000   16.49848000     -0.095893   -0.69303800   -0.32667900
Ge    8.57246000    8.81376000    5.79241000      0.099924   -0.02263700   -0.16546500
Ge    9.61295000    8.17417000   13.97084000      0.124147    0.86107800    0.81633100
Ge   10.67552000   13.87564000    5.28551000      0.788315   -0.01016600    0.40180700
Ge   11.33350000   12.16910000   14.81618000     -0.533117    0.54766400    0.20719700
Ge    6.16599000   21.33939000    2.82161000      0.014281    0.26017000    0.14314600
Ge   10.27766000   17.92727000   16.86673000      0.043772    0.56292500    0.01298800
Ge   14.02837000    1.95189000    5.99640000     -0.523232   -0.38396900    0.42061500
Ge   10.85863000    5.63720000   15.03370000     -0.760377   -0.57718400   -0.01768400
Ge   14.85806000    7.11063000    6.29934000      1.107069   -1.20933200   -0.55724500
Ge   13.90883000    9.50134000   14.89439000     -0.750665    0.02329300    0.31531900
Ge   14.80845000   13.76314000    4.66052000      0.011583   -0.00532600    0.32165200
Ge   15.90654000   16.55496000   15.08965000     -0.085495   -0.86279200   -0.78881700
Ge   10.98035000   17.59178000    2.95606000      1.044332   -0.02901900   -0.89363900
Ge   12.66695000   21.99305000   17.30437000      0.001704   -0.48746200    0.54367800
Ge   17.47294000    5.46488000    4.10240000      0.253667   -0.14604500    0.34270200
Ge   20.85878000    2.84310000   12.51048000      0.179966   -0.05455400   -0.32095700
Ge   19.52122000    8.50677000    6.79735000     -0.427199   -0.30064500   -0.21576400
Ge   18.64131000   11.91989000   14.57558000      0.252282   -0.88681100    0.22049300
Ge   22.80005000   15.03347000    0.95110000      0.639821   -1.64183000   -0.43663200
Ge   18.66626000   15.17966000   13.42226000      0.089312   -0.16944600   -1.35716400
Ge   20.07582000   20.50411000    5.69285000      0.223196    0.67391500    0.78778700
Ge   22.46950000   21.30089000   15.18286000      0.589020   -0.24340500    0.02923100
Ge    4.49036000    2.60541000    3.27204000      0.357976    0.74220500    0.17930500
Ge    5.65080000    3.95663000   15.29563000     -0.186804    0.49867800    0.31004100
Ge    4.26927000    9.38472000    4.44623000     -0.188391    0.58305200    0.37867800
Ge    4.85704000    8.29416000   12.40128000      0.132765   -0.27574300   -1.07798000
Ge    6.15848000   14.89495000    1.11935000     -0.332788   -1.15862600    1.46660400
Ge    3.28314000   14.76534000   12.64618000      0.397584   -0.22588100   -0.15698800
Ge    4.35264000   22.53814000    6.15972000      0.128494   -0.10442100   -0.82366000
Ge    7.19350000   20.02538000   12.55746000     -0.246689   -0.53070800    0.09114800
Ge   12.26894000    4.45236000    5.31226000     -0.842415    0.60886100   -0.65468900
Ge    7.48873000    1.96431000   12.76278000      0.106821   -0.08335600   -0.40239200
Ge   12.06897000   10.19660000    1.02004000     -1.491387    0.74281900    1.80001000
Ge   13.22610000    7.25397000   13.61928000      0.069547   -0.26302200   -0.14140700
Ge    9.73236000   13.79192000    1.48230000      0.442716   -0.36239400    0.97679100
Ge    8.82879000   15.25526000   11.39867000      0.443231    0.29704200    1.25241800
Ge   12.24572000   21.65998000    1.73302000     -0.870095   -0.82538100   -0.82572200
Ge   11.85734000   18.98753000   11.69450000      0.092798   -1.05703100   -0.21913900
Ge   21.56702000    0.68435000   17.30842000     -0.179800   -0.17429200    1.43175800
Ge   14.04436000    4.72375000   11.58267000     -0.790442    1.11150200    0.10251700
Ge   18.38726000    7.81974000    1.46511000     -0.830566    0.54794200    0.12235300
Ge   15.82544000    8.22378000   10.10452000     -0.129766   -0.66521300    0.32302300
Ge   17.68872000   11.45445000    3.12311000      0.813886   -0.38615900    0.41649500
Ge   19.41087000   14.85549000    7.92424000      0.046127   -0.24360300   -1.08786500
Ge   18.06931000   18.02619000    3.02024000      0.016462    0.54810500   -0.11043300
Ge   15.89086000   20.14082000   11.65027000     -0.844947    0.48518100   -0.60845100
Ge    0.42289000    0.42688000    2.46311000      0.337605   -0.01000300   -0.89531200
Ge    0.52815000    0.17278000   11.95426000     -0.401884    0.32738800   -0.38051900
Ge   20.09232000    6.36460000    3.87546000     -0.155649    0.01126100   -0.23017900
Ge   22.43887000    9.29232000   13.01337000      0.640286   -0.47443800    0.99421000
Ge   21.09708000   12.97877000    3.85885000     -0.491182   -0.44793700    0.52925300
Ge    0.72934000   17.31607000    9.22650000     -0.032701    1.02021200    1.52326600
Ge    2.65279000   20.62990000    3.61040000     -0.123819   -0.37276100    0.06339500
Ge   20.85369000   16.72813000   12.69694000     -1.079197    0.03865000   -0.49849500
Se    0.76150000    1.18598000   18.62796000     -0.426684    0.02242300   -0.17460200
Se    1.56869000    3.29231000   11.61066000     -0.839240    0.38509300   -0.43264800
Se    0.04988000    7.10855000    2.77417000      0.621920   -0.53449400   -0.24806200
Se   22.95194000    6.75517000   12.81367000     -0.342335    0.92479300   -0.34740000
Se    3.98050000   10.72103000    0.91497000     -0.503151    0.37365700   -1.21887300
Se    1.75932000   13.62928000    9.69607000     -0.555842    0.23691400   -0.09896400
Se    1.60592000   17.97823000    3.44800000     -0.416149   -0.25153700    0.26433500
Se    0.88451000   19.92941000    9.56905000      0.901136   -0.42572600    0.03193200
Se    7.00154000    2.20356000    1.38781000     -0.004422    0.30267400    0.64862200
Se    6.85060000    1.66297000   10.14157000     -0.124716   -0.43630900    0.90482500
Se    7.51287000    5.25692000    1.98666000      0.299002   -0.37530900    0.67341800
Se   10.52770000    6.95182000   12.05853000     -0.270449    0.25698000    0.29468700
Se    8.84396000   11.53582000    0.99723000     -0.500966    0.41080000   -0.05024500
Se    5.88104000   14.70495000   12.82407000     -0.545940   -0.24388800   -0.74002800
Se    4.14155000   19.94127000    1.47003000      0.373423   -0.76445600   -0.16617500
Se    9.03471000   18.50969000   11.94154000      0.333649   -0.41238500   -0.34914900
Se   14.04375000    3.70999000    1.09910000     -0.440661    0.78200700   -0.78615800
Se   12.94414000    0.55012000    9.89442000      0.016674    0.12992800    0.23612300
Se    9.49490000    6.65117000   19.07408000      1.580958   -0.80231600   -0.18330600
Se    9.53471000    9.63939000    9.30771000     -0.329628    0.77999200   -0.40733700
Se   12.39140000   12.89554000    0.63876000     -0.296386   -0.36574300    0.78792600
Se   13.54121000   11.55891000   10.03975000     -1.190307    0.04174000   -0.28600200
Se   15.75884000   15.08178000    1.72440000      0.281600   -0.18481700   -0.66391400
Se   11.55484000   18.01009000    8.16209000      0.789446    0.03631500    0.29062800
Se   16.44282000    3.32196000    2.42624000      0.696604    1.10901700    0.41912700
Se   15.51748000    2.89838000   11.22366000      0.100414   -1.51278900    0.49961800
Se   17.13872000    6.55224000   17.45071000     -0.387250    0.14489200    0.82808600
Se   20.98178000    7.18593000   11.43805000      0.297130    0.10517400   -0.32547800
Se   19.09154000   10.17580000    0.36816000      0.770360    0.12679100    1.12354100
Se   17.36410000   15.67841000    6.85681000      0.054901    0.12859600    0.05330700
Se   19.03899000   16.57665000    0.98300000      0.168102   -0.60343300    0.17266800
Se   17.59535000   18.78369000   10.53179000      0.775071   -0.46902100    0.31433300
Se    3.66728000    4.89130000    1.78571000     -0.041222   -0.67185000    0.51253200
Se    3.33993000    6.39148000   11.67512000      0.472456    0.46230300   -0.38799400
Se    5.43466000   10.72558000    2.70373000      0.727420   -0.15690600    0.10400900
Se    5.17354000   13.24817000   10.88460000      0.391305   -0.77602200    1.21302500
Se    4.02191000   15.08378000    3.81950000     -0.033192   -0.04725500    0.15979900
Se    3.24139000   16.74414000   10.37981000     -1.336407    0.64650600    0.98938000
Se    4.06428000    0.24886000    0.32618000     -0.248381   -0.17272000   -0.00293300
Se    6.99389000   21.06206000   10.39233000     -0.517403    0.04328800   -0.55788300
Se   10.64882000    6.26763000    3.87863000      0.164104   -0.33759100    0.54367100
Se    7.69459000    3.65599000    9.22636000     -0.046597    0.03085400    0.81530800
Se   10.26033000   10.46424000   17.43825000      0.342067   -0.38024800   -0.68443700
Se    7.32304000   10.77682000    8.49297000      0.525993   -0.53546100    0.95757200
Se   10.89460000   17.12474000    0.37463000     -0.930780    0.03068100    0.24576300
Se   11.47276000   15.08487000   11.15807000     -0.277187   -0.73836200   -0.18343900
Se   13.91328000    0.14007000    2.38480000      1.634699    0.19610200    0.32158300
Se   11.98407000   21.34585000   11.65890000     -0.174166    0.82885200    0.53203300
Se   13.37183000    6.17116000    0.92182000     -0.494190   -1.06719500    0.21158200
Se   17.94451000    6.92052000   12.00962000     -0.692321    0.47318400   -0.27430500
Se   15.78887000    8.94807000    0.40475000     -0.413401   -0.56609400    0.11174600
Se   15.22988000   10.52263000   13.20923000     -0.547248    0.63434800   -0.84160000
Se   18.56633000   14.54678000    3.77428000      0.519717   -0.72387800    0.38126700
Se   14.50198000   14.05360000    9.34549000      0.328343    0.33488900    0.67324500
Se   17.49627000   22.87937000    2.18569000      0.529908   -0.80109700   -1.08726200
Se   13.96665000   19.76515000    9.08713000      0.117353    0.10995100    0.89489400
Se   21.31010000    0.79466000    1.31994000     -0.644438   -0.11368100    0.19589300
Se   22.58229000    4.55510000   10.73576000      0.175436   -1.14128500    1.03043200
Se   20.21586000    6.07981000    1.17107000      0.206260    0.55370000    0.71546100
Se   22.05502000   10.24355000   10.95756000      0.180074    0.78959400   -0.92774700
Se   21.57131000   12.96515000    0.18218000      0.121315    0.43114200   -0.33720600
Se    0.09215000   16.01143000   12.23307000      0.952628   -0.20680600   -0.15191000
Se    0.73877000   21.09446000    1.93302000      0.092322   -0.09464100   -0.11442900
Se   19.93308000   21.19352000   14.17906000      0.318092   -1.05995400    0.59108200
Se    4.19002000    4.99374000    8.55692000      0.429408   -0.05512900   -0.29500800
Se    0.48666000    6.37601000   16.43951000      0.759659    0.24167800   -0.15529200
Se    4.09627000   11.21621000    8.42408000      1.508184   -0.60719300    0.87682000
Se    3.96215000    8.53380000   17.32327000     -0.203905   -0.39186300    0.22969900
Se    3.81704000   18.42589000    7.87360000      0.700941    0.41887900   -0.65468000
Se   22.53562000   18.10852000   15.78338000     -0.426072   -0.92291800   -1.09447300
Se    3.51213000   21.96671000   11.82720000      0.038948    0.47675400    0.09426900
Se    8.42194000    0.10369000   16.37481000      0.517194    0.28144300    0.11196800
Se    6.41236000    3.89304000    4.43250000      0.277025   -0.11236300    0.14747700
Se    5.45243000    5.12647000   17.92863000      1.208577    0.27344100   -0.73680900
Se    6.66795000   10.33905000    5.37004000     -0.583138    0.93050100    0.07623500
Se    4.37164000    6.77947000   15.21916000     -0.010840   -0.64807500    0.37819600
Se    6.39346000   16.28603000    9.39496000     -0.015986    0.91695900    1.48319300
Se    6.74637000   16.16264000   18.60205000      0.455282    1.26346500   -1.87187100
Se    8.07138000   18.67757000    7.88282000     -0.349541   -1.18536500   -1.11150400
Se    8.05374000   22.94138000    1.71918000     -0.391374   -0.91653100   -0.10972900
Se   14.74598000    1.79945000    8.87986000     -0.146437    0.58576900   -0.12449300
Se   12.38123000    4.53345000   16.52665000      0.481341   -0.40479400    0.57244900
Se   13.03359000    8.04004000   10.96437000      0.978769    0.51883400   -1.14445200
Se   13.62354000   11.76297000   16.49319000      1.513333   -0.92345800   -1.27911100
Se   13.28627000   14.90119000    6.66151000      0.398438    0.69451500   -0.66758500
Se   13.74677000   15.75755000   17.33893000     -0.082722   -0.63568000   -0.04427700
Se   12.52181000   21.73332000    5.91720000      0.635483    0.66192800    0.85292600
Se   17.45897000   21.35227000   17.33477000      0.235987    0.56384400    0.75104900
Se   19.43252000    2.99877000    9.35271000     -0.168180    0.16845800   -0.50150900
Se   19.73967000    3.49920000   17.85705000      0.862454   -0.11025200   -0.48043500
Se   17.91957000    9.73070000    8.31846000     -0.253625   -0.24425200    0.57525800
Se   17.33394000   10.40931000   16.74471000     -0.152480    0.52546000   -0.75964400
Se   15.10445000   16.49270000    9.68212000      0.019967   -0.74774900    0.05469100
Se   18.23501000   14.99004000   15.76694000     -1.046808    0.29065700    0.45417500
Se   18.11670000   18.77214000    8.21382000      0.579586    0.49267800   -0.29417300
Se   20.13245000   19.53719000    2.34720000     -0.084723    0.29201900    0.39263800
Se    4.56820000    1.26761000    8.01865000     -0.140607   -0.67615700   -0.11899700
Se    0.06777000    4.01707000   17.25736000      0.448208    0.38347300    0.54685900
Se    6.83971000    7.52644000   10.26206000      0.192050   -1.07759100    1.05328900
Se    3.36573000    6.95791000   19.31802000     -0.060619    0.42579800   -0.45954400
Se    3.64731000   14.56068000    6.84902000      0.975422    0.26638000    0.85788300
Se    4.53874000   14.41134000   17.25906000      0.327639   -1.62318500   -0.03608600
Se    3.29564000   21.13817000    9.61538000     -0.124059   -0.20619500   -0.56644100
Se   22.24289000   16.78069000   18.93857000      0.233312    0.71070600   -0.27343000
Se    9.13555000   22.97554000    8.73691000     -0.408502    0.37487500   -0.15156200
Se   10.67443000    3.15695000   18.96165000      0.146318    0.10679600   -0.78767500
Se   11.76039000    4.60255000    9.91225000     -0.756904   -0.43184400   -0.03231500
Se    6.61049000    8.40951000   18.81943000     -0.352355    0.16273900    0.65501100
Se   10.15064000   13.12819000    8.02337000      0.317196    0.24362100    0.57900300
Se    8.48389000   12.28969000   17.97072000     -0.599788   -0.45352300   -0.01158400
Se   10.86026000   21.45009000    8.25649000      0.282723   -0.98622500   -0.33713300
Se   11.63503000   14.57515000   16.67069000     -0.025083    0.88017200    0.10390500
Se   17.06777000   21.69318000    8.44874000      0.744719    0.66252900   -0.75074200
Se   15.37389000    4.03282000   18.41359000     -0.296441   -0.22040700    0.14221600
Se   15.17192000    5.57564000    9.40571000      0.734649    0.85649400   -0.40024400
Se   13.44597000    9.20553000   18.83900000      1.299631   -0.80348700   -1.01388600
Se   16.30197000   12.26755000    9.35752000     -0.019674    0.76430800    0.73445600
Se   16.24758000   13.95231000   18.56353000      0.164766   -0.61235200   -0.37769600
Se   14.98405000   18.75708000    5.93307000      0.094511   -0.64362100    0.48323100
Se   16.49270000   18.92783000    1.28067000      1.129246    1.38100800   -0.54947400
Se   22.20889000   22.78608000    9.66463000      0.295275   -0.13565700    0.13901300
Se   22.89741000    0.95603000   15.36514000      0.695669   -0.83843700   -0.86705500
Se   20.47063000    6.44515000    8.18179000      0.047669   -0.28235200   -0.27150600
Se   21.76099000    8.15594000   18.84450000      0.028209   -0.09500600   -0.26797700
Se   21.44178000    9.63739000    7.75053000      0.641133    0.37140300   -0.32248300
Se   22.00676000   10.15644000   17.19026000      0.171785    0.37618000    0.57922600
Se   20.88696000   16.15096000    6.39402000      0.283148   -0.26450300    0.54747600
Se   18.95184000   16.68664000   17.82044000      0.011207   -0.17514600    0.24217600
Se    2.06728000    2.07389000    9.71527000      0.556895   -0.66914600    0.05415800
Se    3.22500000    2.52398000   15.46279000      0.107273   -0.17972600   -0.10997300
Se    1.58521000    8.29923000    7.44889000     -0.529770   -0.06326500   -0.06584500
Se    2.04566000    9.12333000   16.14895000     -0.681972    0.18355500   -0.51100300
Se    1.47274000   16.55707000    7.05671000      1.020950   -1.49885900   -1.06880500
Se    1.42719000   12.67675000   16.15873000     -0.485667    0.13867500    1.08855400
Se    0.57022000   18.44350000    6.24395000     -0.733789    1.54963000   -0.59814500
Se    2.60030000   20.72396000   16.13640000     -0.107161    0.19314000    0.58807400
Se    7.57792000    0.92287000    4.93627000     -0.563592   -0.19382100    0.33189000
Se   13.03701000    0.80446000   18.88259000     -0.159764   -0.63224000    0.20635900
Se    7.42093000    6.92795000    7.07148000     -0.021259   -0.06660000   -1.00837600
Se    7.39690000    7.45353000   14.30630000     -0.520791   -0.52838200    0.34293400
Se    7.21164000   14.14555000    6.54294000      0.000036   -0.19420900   -1.44485900
Se    8.53007000   16.98087000   14.83558000      0.349212   -0.82687600    0.72774600
Se    4.73510000   19.82993000    5.90542000     -0.245387   -0.17712100    0.77560300
Se    8.32036000   14.71865000   15.62922000      0.260077    0.64735900    0.31043700
Se   15.14636000   21.80907000    4.88452000     -0.498564    0.87302300   -0.24239500
Se   15.08655000    1.65973000   16.81227000     -0.550727   -0.56023800   -0.61021400
Se   12.35772000    7.08722000    6.63629000     -0.355795   -0.59013700    0.56420000
Se   10.78803000    7.79605000   16.23379000     -0.046185    0.34307000   -0.77394500
Se   13.13317000   11.79795000    4.49480000     -1.396852    0.79009100    1.24929800
Se   14.53147000   14.36924000   13.62140000      0.206286   -0.12328700   -0.26674200
Se    9.27621000   15.89633000    5.40958000     -0.477600    0.49045200    0.83973100
Se   13.57880000   19.87562000   18.86275000     -0.570561    1.70982400   -1.50627300
Se   20.39710000    1.82647000    5.22333000      0.403896    0.15211900   -0.62377300
Se   18.45962000    0.62865000   17.63153000      0.006353   -0.78162100    0.09834800
Se   17.22124000    4.97464000    6.56458000      1.405410   -0.24472500   -0.53474700
Se   18.70093000    6.85656000   15.74397000     -0.160369    0.23997300   -0.50331300
Se   21.00274000    9.51959000    3.61718000     -0.824051    0.37330400    0.14826300
Se   17.03858000   13.22504000   13.30321000     -0.190116    0.55924800   -0.65315700
Se   17.88775000   19.68924000    5.38354000     -1.148155   -0.43743500   -0.13591200
Se   17.69636000   22.62431000   13.30340000     -0.889435   -0.06705600   -0.41435600
Se    3.62614000    7.14916000    7.00747000     -0.667752   -0.51900000   -0.47388500
Se    3.83183000    4.57602000   13.31738000     -0.681634   -0.08247600    0.06580300
Se    1.70443000    8.50056000    3.94640000      0.365022   -0.42112000    0.09054900
Se    5.34520000   10.48647000   15.53664000     -0.130109    1.65444700    0.05616800
Se    5.31028000   12.57002000    6.66610000     -0.500390    0.67221400   -0.51819100
Se    3.04304000   17.01943000   18.23308000     -0.254479    0.87309100   -0.14887300
Se    1.68850000   21.63355000    6.10052000      0.017230    0.01397100   -0.13032000
Se    4.39989000    0.51917000   14.26198000      0.269455    0.21995900    0.05830400
Se   10.87265000    2.91211000    6.83449000      1.280898   -0.69617500    0.36902300
Se    8.80892000    4.11632000   16.09530000      0.071853    0.38901300   -0.52816800
Se   10.32181000   10.27187000    7.05565000     -0.480645   -0.32871200   -0.38063000
Se    8.75018000   10.64031000   14.42923000     -0.083331   -0.84363700   -0.13067100
Se    8.40907000   14.71489000    9.01570000      0.589070   -0.55545100   -0.22546400
Se   12.63068000   18.26490000   16.01172000     -0.610834   -0.01911700   -0.46894000
Se    9.32181000   19.32855000    3.29981000     -0.708470    0.52718900    0.60737600
Se   10.49249000   20.80878000   17.16351000     -0.076624    0.53399200    0.03568300
Se   14.62758000    4.23729000    5.20682000     -0.088984   -0.05551200    0.16334500
Se   18.24895000    4.13052000   14.62424000      0.109728   -0.66042500   -0.22318900
Se   14.27629000    9.42982000    6.88366000      0.103484    1.50290800    0.53207300
Se   17.43310000    9.94858000   13.33682000      1.452455   -0.77655600    0.27192100
Se   17.10829000   12.41603000    5.46291000     -0.509125    0.27231500    0.34831000
Se   16.03960000   18.81260000   15.92365000      0.009922    1.20764800    0.31603600
Se   16.07468000    1.12803000    5.03795000      0.153056   -0.93046500   -0.07593800
Se   18.34364000    3.17219000   12.31684000      0.520724    0.32982500    0.46853500
Se    0.38873000    4.14352000    7.38372000     -0.366192    0.20636500    0.33937900
Se   22.23566000    3.76399000   14.78956000      0.996730   -1.90109300   -0.63326500
Se   20.06072000   12.57260000    7.51346000      0.227583    0.32612700    0.21111100
Se   21.58190000   11.97753000   15.37328000     -0.247065    0.45981800    0.25964700
Se   22.67740000   12.88534000    6.78115000     -0.853170    0.27292200   -0.54971500
Se   19.62978000   18.10048000   14.27930000     -0.211298    0.45122400    0.21553500
Se   20.62865000   19.24468000    8.05150000     -0.529117    0.50337100    0.27842300
Se   21.86765000   20.80474000   17.65017000      0.011992    1.30739700    0.55457100
Se    3.24654000    3.33558000    5.55749000      1.529456    0.79218600   -1.19138600
Se    7.63930000    1.42542000   18.24289000     -0.331526   -0.08135500   -0.81296800
Se    0.77445000    4.78050000    0.34705000     -0.357607   -0.64924700   -0.12575500
Se    3.68230000    8.68474000    9.97879000     -0.049461    0.47606600    0.81983200
Se    0.50869000   12.20920000    2.83282000      0.103378    1.36493200    1.45905900
Se    2.54433000   15.85654000   14.82596000     -0.611927    0.59997200   -0.86126700
Se    3.68099000   15.76018000    1.25125000      0.309959    0.43858100    0.44500200
Se    5.29288000   18.30429000   13.30385000      0.561897    0.91781900   -0.07128900
Se   10.51410000    0.28004000    3.02583000     -0.147020    0.66516300    0.06226400
Se   11.69556000    1.31173000   13.81469000     -0.906445   -0.19452800   -0.33063000
Se   10.05238000    8.58629000    3.80327000     -0.101727    0.56855100   -0.46121300
Se    6.98922000    9.01971000   16.60155000      1.635895   -0.38751600   -0.74918400
Se    9.33493000   12.26012000    3.91798000      0.190521   -0.12890400   -0.60427500
Se    9.16758000   12.61538000   12.21390000      0.968084    2.05202900   -0.41641100
Se    9.32812000   20.51494000    1.29078000     -0.192678    0.01625500   -0.27233000
Se   11.05615000   19.01290000   14.19648000      0.261616    0.01008300    0.75000100
Se   18.75550000    0.32827000    7.70795000     -0.692379   -0.98872800    0.99644700
Se   14.56615000    2.32642000   13.67305000      1.526752   -0.10677100   -0.61475300
Se   15.65173000    6.99322000    3.66295000     -0.403092    0.33304900    0.40388300
Se   14.25207000    5.33006000   15.00085000      0.009869   -0.14882300    0.87790500
Se   15.60554000   11.96321000    2.00926000     -0.331318   -0.21896000    0.09450000
Se   16.63768000   17.18928000   12.63353000     -0.465466   -0.58790300    0.56632700
Se   15.67284000   16.19604000    3.90753000      0.420227    0.64064100    0.43780300
Se   14.92696000   19.85331000   14.11069000     -0.001407   -0.20147900    0.35706400
Se   22.46061000   22.24058000    5.36474000      0.444410    0.26362000   -0.12818600
Se   20.85593000    0.16692000   13.34218000      0.739446    1.27962200   -0.70621800
Se   20.80567000    3.95293000    3.50932000     -0.335483   -1.08700100   -0.21857900
Se   20.76738000    8.93459000   14.65457000     -0.295828    0.76846700   -0.05696600
Se    1.95958000   12.36161000    5.67606000     -0.019851   -0.24279500    0.21295000
Se   21.59599000   14.89104000   15.86488000      0.825179   -0.28936900   -0.71678100
Se   21.21599000   18.76554000    4.51163000      0.880241   -0.82839400   -0.95456300
Se   21.98913000   18.97844000   11.17325000     -2.128128   -0.05756000   -1.78808800
Se    0.48089000    5.12276000    5.22770000     -0.774353    0.37766300   -0.11190100
Se   20.67381000    5.24738000   14.22319000     -0.960306    1.16609800   -0.43796900
Se    0.10128000   10.11000000    2.33626000     -0.373351   -2.13697300   -0.84890100
Se    1.37914000   11.18189000   13.49768000     -0.181768   -0.09446400   -0.05504800
Se    1.96870000   13.68500000    1.63277000     -0.016032    0.56626100   -0.78475800
Se    1.49083000   20.94375000   12.78658000      0.117317    0.70365000    0.46793700
Se    3.96859000   22.88189000    3.08321000      0.761733    0.28146000    0.30624100
Se    5.55018000   19.31339000   15.41451000     -0.461615   -0.18698100   -0.03228000
Se    9.34570000    5.77344000    7.66013000      0.608503   -0.44581400    0.65035400
Se    7.23956000    4.52926000   12.98564000      0.276312    0.25185000   -0.68893200
Se    5.69463000    7.43969000    4.53337000      0.044437   -1.14034700   -0.75396600
Se    8.10152000   10.65539000   11.94913000     -1.083733   -1.38187100    0.39364000
Se    7.58542000   16.31059000    2.62638000     -0.087524   -0.07415600    0.36019600
Se   12.17569000   14.69876000   13.51274000     -1.023321   -0.07508900    0.37434600
Se    7.20799000   21.50489000    5.42847000     -0.187842    0.85159500   -0.39460800
Se    7.87918000   22.11209000   13.59405000      0.169273    0.01080700    0.42948200
Se   12.26479000    2.01307000    3.74650000      0.262566    0.28636900   -0.14429800
Se    9.91322000    1.86326000   12.00104000      0.643971   -0.09295000    0.57590200
Se   13.77084000   10.23396000    3.06271000      0.629733   -1.10291000   -1.14920800
Se   11.97821000   10.43707000   13.38991000      1.124033   -1.14904900   -0.34735600
Se   12.16922000   15.22983000    3.28669000     -0.307456   -0.89280300    0.10829900
Se   14.01398000   17.43941000   12.77183000      1.210554    0.43963400    0.31286200
Se   13.38260000   19.10314000    2.80510000     -1.530708   -0.06636500    1.42397000
Se   13.91744000   22.79364000   15.33117000      0.083654    0.29914900    0.39128000
Se   17.27918000    5.13993000    0.69423000     -0.284703   -0.45647600    0.54440900
Se   15.83960000    6.01812000   13.01541000      0.215752    0.56011700   -0.26062400
Se   18.19289000    8.88794000    3.93029000      0.407136    0.16272100   -0.48259000
Se   21.00750000   13.48024000   12.95252000     -0.500336    0.31498400   -0.36232100
Se   22.08303000   15.11321000    3.18098000     -1.160690    1.57725900    0.71317400
Se   19.26329000   15.70896000   10.07984000      0.891589   -0.16908100    0.89046900
Se   19.93989000   21.94486000    3.54082000     -0.170204    0.27639200   -0.32439900
Se   16.34843000   22.63952000   11.24255000      0.451027   -0.22679800    0.32580600
