384
23.00800000 23.00800000 19.32000000
Ge    5.78380000    5.09539000   10.66794000     -0.587670   -0.74891300   -0.08892800
Ge    5.42568000    7.05479000    2.09805000     -0.007126   -0.53897800   -0.80263000
Ge    1.59612000   11.24065000    8.05725000      0.291374    0.22607000   -0.00039700
Ge    5.31593000   11.32081000   18.32573000      1.296137    0.60969200   -1.23560800
Ge    4.42086000   14.79654000    9.29661000      0.403517    0.52761800    3.17419000
Ge    8.43648000   17.89794000    0.74310000     -1.801664    0.15793200    0.59683000
Ge    9.02536000   19.86782000    9.48280000     -1.351975   -1.37129700   -0.08116300
Ge    4.04824000    3.26328000   18.82401000      0.224280    0.47900700   -0.06395000
Ge    8.71082000    5.97491000   10.46974000      1.550762   -1.24979000    0.52307700
Ge   10.88126000    5.44133000    1.49428000      1.277049   -1.49771100    0.15254500
Ge   11.08399000   12.65767000   10.41626000     -0.193278   -0.31878000   -0.49352500
Ge   11.78757000   12.49672000   17.75098000      0.162864   -0.38291700   -0.64620800
Ge    9.48991000   16.97644000    7.74916000      0.491828   -1.29393400   -0.85277700
Ge   13.52206000   15.45212000    1.03526000      0.032181   -0.16912800   -0.15392400
Ge   10.81419000    1.97583000    9.50870000     -0.088327    0.04715900   -0.27643200
Ge   16.15085000   21.29082000    0.20689000     -0.912924    1.73076100    0.06311900
Ge   19.38151000    5.34005000   10.37481000     -0.374952   -0.30563900    0.21211400
Ge   19.05430000    8.81342000   17.40093000     -0.394373    0.39152300    0.21300000
Ge   21.42900000   14.38600000   10.71417000      0.141541   -0.20812200   -0.49136200
Ge   16.74366000   10.98022000   19.07427000      0.206087    0.33739100    0.35996400
Ge   13.85354000   17.37017000    7.84146000      1.173187   -0.19249300   -0.27541000
Ge   18.61570000   13.91591000    1.45532000     -0.689395   -1.30168400    0.33584300
Ge   19.96729000    0.66529000   10.61234000     -0.156188    0.00559300   -0.53043300
Ge   17.89146000    2.49968000   19.25512000      0.159345    0.05837300   -0.33993100
Ge    0.02571000    6.63315000    9.21212000      0.608069    0.05680800    0.20181000
Ge   21.77584000    3.25706000    0.46817000     -1.008267   -0.41843000   -0.19878100
Ge    1.47496000   11.18326000   10.96259000      0.376701    0.18447600   -0.32198600
Ge    0.38963000   11.61453000   18.74469000      0.972876   -0.65238900   -0.21198600
Ge   22.85764000   14.88494000    8.31005000     -0.122709   -0.05393000   -0.13954300
Ge    0.59455000   15.52679000   17.02993000      1.104044   -0.57473200   -0.38688600
Ge   20.33592000   20.90943000   10.05609000      0.466794   -0.37674700   -0.36157500
Ge    2.73413000   20.92300000   19.18524000      1.101874    0.56012700    0.28492900
Ge    5.77698000    8.70814000    8.17084000     -0.148388   -0.01629000    0.15575700
Ge    0.70616000    6.94510000    0.31732000      0.101163    0.30854700   -0.55983700
Ge   22.19566000    7.97195000    5.81006000      0.201986    0.03273000    0.41694200
Ge    3.38846000   13.45653000   14.95426000     -0.403130   -0.32929900    0.51107900
Ge    4.29476000   17.28794000    3.48609000      0.557976    0.19467000   -0.21478200
Ge    0.98915000   19.34863000   17.82787000     -0.220647   -0.20953700   -0.24186100
Ge    4.54834000   19.01953000   10.46070000      0.472453    0.17608500   -0.40322300
Ge    3.52938000   22.85976000   16.36089000      0.454855    1.57729100    0.42374500
Ge    8.36653000    3.33279000    6.64715000     -0.299778   -0.03279100   -0.20267200
Ge    7.76554000    4.33532000   18.81563000      1.193003   -1.04094000    0.15144600
Ge    6.73120000   13.03730000    3.79966000      0.588049    0.23547300    0.07796900
Ge    8.08295000    7.89690000    1.76004000      1.025440    0.01222400    0.11058800
Ge    5.58393000   16.51580000    7.02455000      1.700191    0.77739700   -0.20919200
Ge    9.05982000   15.10327000   18.28624000     -0.092928   -0.79450100   -0.58761400
Ge    9.74198000    0.57116000    6.19578000      0.115100   -0.19630300    0.22711300
Ge   10.42692000   21.63057000   13.82955000      1.074464   -0.46455400    0.20839000
Ge   13.06697000    6.43744000    8.90535000     -0.137908   -0.95334300    0.11605800
Ge   14.24030000    6.66865000   17.56463000      0.212114   -0.52541800   -0.41336500
Ge   12.59229000    9.76224000    8.81885000     -0.565341   -0.04292100    0.54162300
Ge   15.79695000   13.49961000   15.82313000      0.133680   -0.16894900    0.08480900
Ge   13.44763000   17.24332000    4.46427000      1.243010   -0.74939300    1.00687500
Ge   14.21402000   18.04798000    1.04966000      0.145149    1.33019900    0.37887400
Ge   14.19371000   21.82902000    7.97965000      1.287390    0.06963600    1.78599700
Ge   16.71896000    1.66922000   14.62118000      0.601265    0.20862700    0.67365200
Ge   19.76812000    4.38769000    6.73720000      0.708331   -0.55342400    0.17609300
Ge   20.72629000    6.22452000   17.14322000     -0.157036   -0.74271000   -0.64440000
Ge   16.23660000   10.84220000    7.01443000      0.923049    0.50222000    1.52606900
Ge   20.03346000   14.27381000   17.57322000     -0.560116    0.55304500   -1.00518200
Ge   18.96984000   16.87658000    5.04573000      0.033766   -0.57079100    0.26829100
Ge   20.17445000   18.66962000   16.42932000     -0.102446    0.30556100    1.01840000
Ge    0.02995000    1.94216000    4.52952000     -0.427126    0.06286800    0.69783200
Ge   19.20286000   22.06018000    0.37136000      0.370823    0.31205100    0.11489300
Ge    5.52539000    3.33042000    7.16438000     -0.137614    0.14080800   -0.72346500
Ge    2.40464000    5.19171000   15.35729000     -0.151200   -1.10995000    0.16437700
Ge    2.60935000    5.93547000    4.61358000     -0.465953   -0.81540800   -0.15300400
Ge    3.22203000    9.93602000   13.88035000      0.946402   -0.59866100    1.30295200
Ge    1.55136000   15.20278000    4.60661000      0.061852    0.38290600   -0.00304400
Ge    0.87984000   18.59342000   13.01598000     -0.708387   -0.19193600   -0.17614800
Ge    1.62100000    2.03742000    7.00521000      0.138401    0.22433200   -0.12417800
Ge    4.47896000   16.62282000   16.44875000      0.190933   -0.42109600    0.09220100
Ge    9.83543000    2.72019000    2.28486000     -0.244202    0.28510400   -0.38364900
Ge   10.55641000    2.00177000   16.03413000      1.115848    2.60235200    1.07523400
Ge    8.45420000    8.79688000    5.85357000      0.409494    0.73547500   -0.69334700
Ge    9.62607000    8.24688000   14.16892000      0.049961   -0.41716600   -0.42494500
Ge   10.70207000   13.94438000    5.55084000      0.156420    0.00352500   -0.19300400
Ge   11.23314000   12.33202000   14.55387000     -0.061016   -0.33457800    0.12153100
Ge    6.01305000   21.31474000    3.02129000     -0.704598   -0.15268600   -2.04496900
Ge    9.93783000   18.00380000   17.06979000     -0.206363    0.54664900   -0.36836100
Ge   13.92494000    1.97573000    6.30727000     -0.133253    0.24240200   -0.57871900
Ge   10.46302000    5.51229000   15.19521000      2.046949    0.57522700   -0.61908900
Ge   14.97512000    6.78570000    6.31110000      0.437156   -0.15983200   -0.19478900
Ge   13.64461000    9.43258000   14.93872000      0.880218    0.66042100    0.68694600
Ge   14.61932000   14.04532000    4.36088000      0.073884   -0.19904900    0.35971200
Ge   15.98134000   16.62033000   14.95644000     -0.053463   -0.12563400    0.07472100
Ge   10.78079000   17.56741000    2.77728000     -0.078806    0.25551300    0.67607700
Ge   12.76089000   22.05267000   17.31187000      0.148818   -1.11816100   -0.22411800
Ge   17.34720000    5.30689000    4.02893000      0.778563    0.99558400    0.00662900
Ge   21.07101000    3.03081000   12.15675000     -0.766319   -1.17959200    0.85459800
Ge   19.32225000    8.30027000    7.08923000      0.233329    0.63895900    0.00225400
Ge   18.70502000   11.74818000   14.59467000      0.239569    0.24298800   -0.15364800
Ge   22.95020000   14.70380000    0.78714000     -0.922802    2.03021900    0.88885300
Ge   18.62480000   15.06383000   13.21148000     -0.172414   -0.60709400    0.12745700
Ge   20.12249000   20.49856000    5.86598000     -0.020517   -0.07988200   -0.41029500
Ge   22.50745000   21.29550000   15.21982000     -0.020654   -0.56477100   -0.21440400
Ge    4.44678000    2.73939000    3.01077000      0.872802    0.19322600    0.43205400
Ge    5.85990000    4.43197000   15.31431000     -0.004892    0.40657100    0.49129400
Ge    4.18521000    9.50404000    4.70490000      0.039472   -0.48055100   -0.37719000
Ge    4.62982000    8.23006000   12.37996000      1.226266    0.10558000    0.66849700
Ge    6.01054000   14.46700000    0.90376000      0.634603    1.19159000    0.08003400
Ge    3.27922000   15.14068000   12.81766000     -0.044968   -0.34402800   -0.85568200
Ge    4.29395000   22.43608000    6.24955000     -0.226662   -0.45429800   -1.38382800
Ge    7.11843000   19.87975000   12.65375000      1.437423    0.38244900   -1.14085700
Ge   12.17211000    4.80779000    5.24651000      1.376429   -1.76546100    1.55419700
Ge    7.55248000    1.97029000   12.63844000      0.192702   -0.37140900    2.00597000
Ge   12.01283000   10.55117000    1.42791000     -0.043044   -1.13630900    0.24912600
Ge   13.16111000    7.26236000   13.62493000      0.167002   -0.73123600    0.08779200
Ge    9.89956000   13.74700000    1.51765000     -0.212369   -0.22346400    0.62103700
Ge    8.88391000   15.35792000   11.69096000     -0.438886    1.43593100   -0.65399300
Ge   12.06369000   22.08937000    1.21860000      0.496300    0.19871600    0.63790300
Ge   11.73935000   18.78968000   11.71941000      1.021750    0.60850600   -0.41651500
Ge   21.48128000    0.50925000   17.45464000     -0.338340    0.77057300    0.36814600
Ge   13.88947000    4.64437000   11.74575000      0.584706   -0.01811000   -0.92918500
Ge   18.19062000    7.81084000    1.60021000     -0.392652    0.82300600   -0.19382000
Ge   15.74287000    8.19707000   10.16264000      1.269665   -0.80307200   -0.24140200
Ge   17.81148000   11.69719000    3.30315000      0.004831   -0.30849600   -0.36010700
Ge   19.33788000   14.70584000    7.65179000      1.330174    0.67276900    0.05904200
Ge   18.20804000   18.34287000    2.96107000     -0.873524   -0.37250700    0.38267500
Ge   15.61469000   20.22903000   11.67697000      0.262200   -0.57658300   -0.82641400
Ge    0.44475000    0.23631000    2.44603000      0.269464    0.57183900    0.04853500
Ge    0.31910000    0.21186000   11.70324000      0.512036    0.28107100    0.35030100
Ge   19.93010000    6.52984000    3.95910000     -0.210948   -0.51748600    1.09233100
Ge   22.68046000    9.32088000   13.23807000     -0.708853    0.50606000   -0.42359900
Ge   21.15344000   12.79679000    3.64257000      0.092179    0.58194500    0.20449500
Ge    0.24544000   17.49640000    9.39792000     -0.024874   -0.10922400    0.95827200
Ge    2.97474000   20.71565000    3.78501000     -0.528897   -0.30331100   -0.34681700
Ge   20.61776000   16.73657000   12.58329000      0.543142    0.70599500   -0.45439300
Se    0.55773000    1.32720000   18.65643000      0.164990    0.28220000    0.01590800
Se    1.50025000    3.36816000   11.28181000      1.362352   -1.03126300    0.08801200
Se   22.80219000    6.81019000    2.59519000      0.208845    0.34970300    0.48750200
Se   22.80411000    6.85816000   12.75461000      0.434364    0.11713400    0.39238800
Se    3.84575000   10.87695000    0.70966000     -1.133168   -0.30485600    1.30550300
Se    1.49808000   13.53440000    9.56014000      0.818370   -0.26918300    0.46498200
Se    1.85363000   18.03259000    3.89843000     -0.551870   -0.25339400    0.01598400
Se    1.25198000   19.94716000    9.54682000     -1.892465   -0.63864800    0.44407000
Se    7.19742000    2.28251000    1.48903000      0.134582   -0.49255200   -0.36023400
Se    6.77856000    1.50349000   10.54111000     -0.606864   -0.05535000   -1.67862500
Se    7.55142000    5.40361000    2.48677000     -0.118818   -0.32575200   -0.01379400
Se   10.42861000    7.07035000   12.14572000      0.027866    0.30072300    0.59542700
Se    8.75878000   11.58983000    0.99629000     -0.434163    0.22841000   -0.03823500
Se    5.89221000   14.78713000   12.49509000      0.178565    0.63011900    0.88122000
Se    4.24988000   19.65350000    1.45171000      0.108058   -0.13154300    0.07188100
Se    9.25619000   18.49793000   11.52105000     -0.540575   -0.16919800   -0.12557800
Se   14.14166000    3.96008000    1.00489000     -1.288468   -0.96994400    0.31898500
Se   13.04550000    0.39614000    9.67504000      0.175469    0.27173000   -0.03722200
Se    9.72620000    6.64016000   19.28438000     -1.355051    1.59370700   -0.33222200
Se    9.56443000    9.84505000    9.06413000     -0.311731   -0.26918400    0.15897700
Se   12.58464000   12.90944000    0.85838000     -0.359110    0.20191400   -0.54179700
Se   13.31309000   11.67544000   10.21826000      0.376930    0.09529300   -0.01601900
Se   16.04773000   15.21313000    1.46456000     -0.375806   -0.10259400    0.07125200
Se   11.60102000   18.20609000    8.17443000     -0.704348   -0.01851100    0.30627100
Se   16.63543000    3.41252000    2.51969000     -0.274635   -0.82909900    1.44410200
Se   15.33178000    2.62502000   11.13268000     -0.584173    0.22921000    1.02237400
Se   17.08372000    6.39072000   17.51899000      0.596516    0.50321300   -0.33169400
Se   21.15504000    7.24034000   11.13759000      0.093040    0.44544300   -0.25904400
Se   19.04970000   10.27381000    0.54912000     -0.617133   -0.42320000    0.06129700
Se   17.49410000   15.90779000    6.85353000     -0.814112    0.24626100   -0.11677000
Se   18.96373000   16.22814000    1.22012000      0.964870    1.47674800    0.33982600
Se   17.62429000   18.54065000   10.54535000      0.104942    0.50234000    0.15153200
Se    3.70842000    4.86711000    2.01034000      0.005711    0.03929400   -0.28314300
Se    3.27103000    6.45083000   11.37974000      0.081078   -0.51451400    0.32707100
Se    5.38863000   10.49863000    2.68290000     -0.330790    0.48988200   -0.67357300
Se    5.33227000   13.14814000   11.02634000     -0.606865   -0.51003700   -0.51977100
Se    4.15256000   14.80402000    3.99622000     -0.550707    0.08645800    0.00400300
Se    3.11094000   16.71143000   10.47934000     -0.087937   -0.16141800   -0.18970400
Se    4.10390000    0.10148000    0.09175000     -0.295379   -0.28522000   -0.70258400
Se    6.90728000   20.71423000   10.28606000     -0.935058    0.32317900    0.33122900
Se   10.90717000    6.16410000    4.03445000     -1.789487    1.62452500   -1.57558200
Se    7.85407000    3.34135000    9.29436000     -0.068705    0.15364100    0.41342100
Se   10.08794000   10.47147000   17.13587000      0.746269    0.51949600    0.18618800
Se    7.24571000   10.66405000    8.69083000      0.491435   -0.26492600    0.55562800
Se   10.62389000   16.97061000    0.22837000      1.318208   -0.06017000    0.07044900
Se   11.40513000   15.00249000   11.10748000      0.852770    0.72811300    0.39579300
Se   14.05189000    0.09075000    3.14740000     -0.842480    0.37985500   -0.77130500
Se   11.90637000   21.42782000   11.77676000     -0.015160   -0.52374400    0.35057900
Se   13.39974000    6.27795000    0.92717000     -0.432788   -0.15614500    0.12986500
Se   18.15685000    6.97009000   12.11128000      0.374689    0.56898200   -0.39542800
Se   15.65768000    8.59534000    0.19790000      0.699674    0.23202500    0.30212300
Se   15.08330000   10.60391000   13.23475000      0.877302   -0.82365000    0.12688100
Se   18.88791000   14.41387000    3.99152000     -0.548934   -0.18192300   -0.38675300
Se   14.46323000   14.36362000    9.47815000     -0.301326   -1.97998900   -0.21725900
Se   17.40089000   22.95769000    1.97747000     -0.057426   -0.62247600   -0.73924100
Se   14.02964000   19.88666000    9.44191000      0.015262   -0.53506000    0.37004300
Se   21.36715000    0.87575000    1.39348000     -1.020680   -0.53493500    0.38108400
Se   22.56465000    4.40327000   10.93159000     -0.416750    1.40153100   -0.88327500
Se   20.06751000    6.04042000    1.60074000      0.637602    0.01672400   -0.75884400
Se   22.18162000   10.51346000   11.01036000     -0.338932   -0.48842600    0.53586900
Se   21.49691000   13.03270000   19.30516000     -0.348221   -0.50647200    0.39705800
Se    0.17168000   15.91610000   11.87364000     -0.248505    0.58546500   -0.36115700
Se    1.17553000   21.07675000    1.75288000     -0.858921   -0.70075700    0.80607500
Se   20.23912000   21.09188000   14.23110000      0.250845   -0.08215300   -0.29897000
Se    4.35401000    5.01463000    8.49555000     -0.241262    0.01939600    0.05396000
Se    0.58838000    6.33489000   16.56375000     -0.555597   -0.04155500    0.08017600
Se    4.33532000   11.01899000    8.50876000     -0.215256   -0.07516400    0.30172100
Se    3.88618000    8.21560000   17.35253000      0.107055    1.30963000   -0.34096900
Se    4.29379000   18.57617000    7.85477000     -1.206670   -0.96755600    1.19140200
Se   22.44529000   18.22135000   15.59811000      1.336345    0.11722200   -0.51601600
Se    3.57574000   21.90513000   11.82844000     -0.300843    0.11270500    0.49122500
Se    9.00978000    0.44091000   16.24375000     -2.688063   -1.54116800    0.89057600
Se    6.75574000    4.01370000    4.46447000      0.508518    0.22623600   -0.40694500
Se    5.64759000    5.23929000   18.21912000     -0.782543   -0.55662600   -0.38930200
Se    6.38962000   10.71723000    5.32922000      0.904716   -0.77014200   -0.13319400
Se    4.24504000    6.69186000   15.44413000      1.095568    0.12919500   -0.54346800
Se    6.38721000   16.50848000    9.72726000     -0.443992   -0.68230100   -1.04941400
Se    6.96321000   16.34679000   18.40230000     -0.559533   -0.20203300    0.32168900
Se    7.93395000   18.67872000    7.51367000     -0.012426    0.57815000    0.34675400
Se    7.76540000   22.63406000    1.67949000      0.274486    0.00265500   -0.36254900
Se   15.00698000    1.53372000    8.51604000     -0.167116    0.11747500    0.48957000
Se   12.47889000    4.20816000   16.28890000     -0.081726    0.66906200   -0.49560000
Se   13.42018000    7.92753000   10.74543000     -1.466929    0.96871800    0.58230400
Se   13.89446000   11.60642000   16.50373000     -0.760498   -0.04039400    0.21220900
Se   13.44367000   15.06055000    6.46668000     -0.297898   -0.00633200    0.33852900
Se   13.64633000   15.77803000   17.58715000      1.130483    0.30319300    0.31632500
Se   12.82891000   21.96058000    6.15245000     -1.299492    0.07857300   -1.47652100
Se   17.81338000   21.19575000   17.64049000     -0.150540   -0.29382600   -0.37476300
Se   19.69694000    2.87746000    9.30921000     -0.232932    0.48325400    0.04079900
Se   19.69168000    3.50191000   17.81979000      0.090620   -0.50166000    0.14867000
Se   17.96899000    9.80388000    8.63987000     -0.409164    0.14137400   -0.48251400
Se   17.39290000   10.66348000   16.67783000     -0.558380    0.16856900   -0.65317300
Se   15.35599000   16.30515000    9.88047000      0.086847    1.43535100   -0.53386300
Se   18.26947000   15.04081000   15.74678000     -0.820333    0.21330900   -0.79898700
Se   18.55402000   18.77501000    8.21611000     -1.066684    0.23482800    0.14637600
Se   20.26442000   19.46776000    2.38636000      0.406640    1.09640000   -0.73941200
Se    4.49941000    1.12627000    7.89153000      0.279626   -0.15283500    0.73930100
Se    0.38372000    3.82283000   17.27700000     -0.091112    0.39652100    0.36933600
Se    6.79208000    7.27206000   10.27243000     -0.974332    1.57102900    0.20237200
Se    3.33363000    7.15945000   19.31747000     -0.808676   -0.48991600    0.72843800
Se    3.97431000   14.69043000    7.08646000     -1.947058    0.08249200   -1.04274300
Se    4.57541000   13.73298000   16.99334000      0.400300    0.27563500    0.42667100
Se    3.16099000   21.06447000    9.44337000      1.530578    0.83862600   -0.03816500
Se   22.42549000   16.84429000   18.70624000     -0.097557   -0.16499700    1.25579800
Se    8.76676000   22.90538000    8.82244000      1.131755    0.57310300   -0.52987900
Se   10.69252000    3.13767000   19.22945000     -0.112371    0.08386200    1.01298500
Se   11.64589000    4.83789000   10.09398000      0.205768   -0.31253100   -0.11290300
Se    6.89438000    8.41853000   18.82215000     -0.527729    0.36154100   -0.47782500
Se   10.35349000   13.04292000    8.09579000     -0.508730    0.78231100    0.39456400
Se    8.20311000   11.82702000   17.93753000      0.009212    0.31989800    0.00205900
Se   10.59720000   21.21955000    8.50755000      0.261695    1.10868700   -0.49651400
Se   11.66395000   15.09915000   16.70804000     -0.801311   -0.54655100   -0.40668900
Se   17.20099000   21.50790000    8.10757000     -1.127417   -1.50707000   -0.03681400
Se   15.22743000    4.24091000   18.32871000      0.355245   -0.33240800   -0.14318600
Se   15.28915000    5.50310000    9.14784000     -0.019689    0.55588700    0.13511400
Se   13.39155000    8.79544000   19.09937000     -1.600132    1.52853700   -0.12866000
Se   16.37454000   11.97552000    9.28203000     -0.726155    0.19408800   -0.48252500
Se   16.00867000   13.75531000   18.51351000      0.582039   -0.56857100    0.02557700
Se   15.10887000   18.73201000    6.07559000     -0.228965   -0.36393600    0.08821300
Se   16.66159000   19.24526000    1.19025000     -0.465229   -1.58331100    0.11256100
Se   22.18085000   22.89240000    9.55699000     -0.596925   -0.66093700   -0.35296700
Se   22.76009000    1.38529000   15.31331000      0.547653   -1.82228100    0.10029200
Se   20.82531000    6.54546000    8.11189000     -1.027356   -0.96105200   -0.69222600
Se   21.53284000    8.33324000   18.53178000      0.301055   -0.48198500    0.73370700
Se   21.37965000    9.53613000    7.96345000      0.201674    0.30732400   -0.69206800
Se   21.93797000   10.20608000   17.11374000      0.507940    0.52988600   -0.02001800
Se   21.04755000   16.18853000    6.14660000     -0.407371   -0.75418800    0.93751200
Se   18.69218000   16.69602000   18.30409000     -0.101098   -0.21712000   -0.67541500
Se    2.25091000    1.84429000    9.45388000      0.116625    0.05664900    0.27792800
Se    3.70424000    2.93270000   15.58995000     -0.390782   -0.29830500    0.45337900
Se    1.33139000    8.29730000    7.37606000      0.052627   -0.50041400    0.07717700
Se    1.99704000    8.93995000   15.89111000     -0.356455    0.39718600   -0.11390100
Se    1.66819000   16.51996000    7.04907000     -0.178178    0.04178200   -0.50621200
Se    1.37894000   12.51096000   16.23982000     -0.322283    0.35887500    0.47373200
Se    0.51564000   18.62887000    6.05975000      0.800690   -0.67077000    0.05365000
Se    2.85128000   20.67177000   16.27088000     -0.271798   -1.32398000   -0.31329500
Se    7.69458000    1.03751000    4.58351000     -0.434861    0.67843800    0.76668100
Se   12.85432000    0.82402000   18.70000000     -0.412516    0.94554300    1.37706300
Se    7.39230000    6.76808000    6.87527000      0.590934   -0.37802400    0.06658800
Se    7.30440000    7.37646000   14.46577000      0.290477   -0.15033400    0.57670800
Se    7.00759000   14.11095000    6.43000000      0.967824   -0.44784200   -0.80183200
Se    8.42279000   17.16753000   14.83656000      0.278904    0.17883100    0.30286700
Se    4.92347000   19.73784000    6.04785000      0.483259    0.82858400   -1.33777300
Se    8.45143000   14.98992000   15.57546000      0.070080   -0.61133000    0.21342400
Se   15.11768000   21.63484000    5.27210000      0.374145   -0.33841800    0.22325800
Se   14.90298000    1.80041000   16.73144000     -0.229621   -0.63472200   -0.65978600
Se   12.29363000    7.04897000    6.56649000     -0.009712   -0.28854100    0.33298800
Se   10.93529000    7.90389000   16.22382000     -0.031872   -0.33240700   -0.53934400
Se   13.36497000   11.73678000    4.54118000     -0.353087   -0.85734900   -0.17016900
Se   14.47842000   14.27843000   13.59094000      0.035497    0.02360000   -0.09735400
Se    9.06746000   15.93835000    5.43936000      0.527916    0.14985800    0.50640100
Se   13.58391000   20.33390000   18.93185000      0.219458   -0.20734200    0.32958000
Se   20.58957000    1.93449000    5.32469000      0.099116    0.48789500   -0.46286700
Se   18.31902000    0.51860000   17.43536000      0.514252   -0.04135400   -0.00311400
Se   17.39934000    4.91938000    6.44039000     -0.145137   -0.11760200    0.56310000
Se   18.41239000    6.84896000   15.53310000     -0.162018    0.66516800    0.54166100
Se   20.71447000    9.34306000    3.71724000      0.916154    0.61636100   -0.28380500
Se   17.01828000   13.17177000   13.03358000     -0.171116    0.10351900    0.02275700
Se   17.65937000   19.83397000    4.84849000     -0.002256    0.39243800    0.65697500
Se   17.86768000   22.84254000   13.33001000     -0.441691   -0.14527000    0.63332700
Se    3.43280000    6.84957000    6.71558000     -0.225704    0.73497300    0.95953400
Se    3.86802000    4.91467000   13.29462000     -0.496168   -0.68758400   -0.38845700
Se    1.69678000    8.52828000    3.79466000     -0.298862   -0.37438300   -0.55937500
Se    5.31165000   10.69657000   15.63765000     -0.395598    0.05765200   -0.23681700
Se    5.17433000   12.45701000    6.43114000     -0.620142    0.13363300    0.52076900
Se    3.08404000   17.12250000   18.50562000      0.014647    0.13237400   -0.02734700
Se    1.62776000   21.75085000    6.12878000      0.200793   -0.11389300   -0.21963300
Se    4.54116000    0.64502000   14.24200000     -0.102212   -0.38400500    0.61109400
Se   11.04477000    2.91425000    7.02696000      0.211482   -0.65695300   -0.30149600
Se    8.84459000    4.15291000   16.02954000     -1.169342   -1.37551000    0.85797600
Se   10.47497000   10.20835000    6.90359000     -0.354786   -0.29205100   -0.30570000
Se    8.69230000   10.49243000   14.34974000      0.256718    0.72887100    0.50345600
Se    8.46339000   14.87059000    9.12811000      0.224408    0.62194100    0.01621200
Se   12.15039000   18.08880000   15.86388000      1.137315   -0.55718900    0.61087400
Se    8.92036000   19.48326000    3.38692000      0.682408   -0.14385100   -0.71998900
Se   10.79434000   20.89606000   16.91061000     -0.983495    0.10680800    0.10335500
Se   14.58160000    4.37035000    5.26686000     -0.646217   -0.92162800    0.29606500
Se   18.41971000    4.00278000   14.63345000     -0.696776   -0.80512700    0.47304300
Se   14.34643000    9.43258000    7.12835000     -0.067715   -0.33203800   -0.23674100
Se   17.49049000    9.80487000   13.66437000     -0.633414   -0.36747300   -0.16488200
Se   17.00170000   12.60550000    5.51684000     -0.221069    0.09240500   -0.10086500
Se   16.22314000   19.09055000   15.98305000     -0.254738   -0.39025400   -0.35477200
Se   15.99082000    0.95893000    5.17732000     -0.176148    0.17048900    0.15071300
Se   18.45888000    3.35583000   12.38268000      0.410738   -0.22786300   -0.97989100
Se   22.99929000    3.91644000    7.59889000      0.425237    0.81357300   -0.51851700
Se   22.41060000    3.50109000   14.56344000     -0.181629    1.06627700   -0.84023400
Se   20.03390000   12.50711000    7.25507000      0.332424   -0.01816700    0.15861600
Se   21.30911000   12.42770000   15.64897000     -0.117986    0.55266900    0.27394800
Se   22.82500000   12.94906000    6.66063000     -1.008023   -0.39734100   -0.77107600
Se   19.25760000   18.26835000   14.31559000     -0.273995    0.01472600   -0.78775000
Se   20.89817000   18.83204000    8.16327000      0.321493    0.90874600   -0.16115500
Se   21.86310000   21.01633000   17.66233000      0.391258   -0.29686600    0.37863900
Se    3.57390000    3.37964000    5.35605000     -0.694661    0.44304100    0.40661100
Se    7.46221000    1.27336000   18.26190000      0.533469    0.56474300   -0.35421500
Se    0.91852000    4.43703000    0.39036000      1.253635    0.14469100   -0.27821100
Se    3.39409000    8.84290000   10.45038000     -0.611959    1.42881700   -1.78852500
Se    0.60626000   12.30694000    3.18580000      0.593341   -1.16071300   -1.43648000
Se    2.29565000   16.25131000   14.85639000      0.451070    0.44164100    0.10012300
Se    3.68063000   15.75065000    1.29509000      0.446889    0.69565400   -0.35468800
Se    5.31429000   18.52530000   13.31237000     -0.698886   -0.32095500    0.26747700
Se   10.44474000    0.36286000    3.21384000      0.302477    0.32615900   -0.50268800
Se   11.32698000    1.15657000   13.87448000      1.445985   -0.71645900    0.54431800
Se    9.90383000    8.62852000    3.58453000     -0.423115    0.10328400   -0.33731800
Se    7.18020000    9.00463000   16.47548000      0.086204   -0.18793500   -0.21051200
Se    9.10164000   12.09565000    3.84812000      0.675960    0.84719500   -0.32729100
Se    9.19939000   13.06278000   12.20949000      0.390647   -2.63973100    0.32088900
Se    9.55495000   20.55680000    1.30063000     -0.215991   -0.17105600    0.31409600
Se   10.91643000   18.85785000   14.12267000     -1.184533    0.47205100   -0.50462100
Se   18.78113000   23.00478000    8.11148000      1.212708    0.96344200    0.01926900
Se   14.69583000    2.44333000   13.70040000     -0.105334    0.01333300   -1.39608800
Se   15.52422000    7.02499000    3.80126000      0.166052    0.15433300    0.05109000
Se   14.43921000    5.47656000   15.02393000     -0.718903   -0.06755500    0.43599200
Se   15.57915000   11.90437000    1.90655000      0.376915   -0.51049700    0.13925400
Se   16.53371000   17.09984000   12.44879000      0.110119   -0.30572800    0.59008200
Se   16.01700000   16.27807000    3.94855000     -0.730225    0.51605300   -0.66293000
Se   14.88490000   19.66143000   14.16199000     -0.403316    0.21935700    0.19795500
Se   22.42086000   22.55593000    5.39662000      0.581926   -0.06924600   -0.41129200
Se   21.09775000    0.23683000   13.03527000     -0.281203    0.05950600    0.48821300
Se   20.58541000    3.74114000    3.65528000     -0.385965   -0.31836900   -0.24875700
Se   20.66713000    9.23571000   14.56009000     -0.310140    0.14129200   -0.15692100
Se    2.13150000   12.24304000    5.84418000     -0.062516   -0.10374300    0.11973800
Se   21.58209000   15.07567000   15.63534000     -0.188387   -0.39829200    0.17544400
Se   21.47862000   18.71062000    4.36534000      0.116774    0.47431900    0.31734300
Se   21.73935000   19.04392000   11.21955000      0.467770   -0.63508600    0.81727700
Se    0.21034000    5.16350000    5.47181000      0.204073   -0.39941700   -0.03631100
Se   20.41755000    5.28195000   14.43297000      0.844900    0.71488600    0.26993400
Se    0.19245000    9.79901000    2.06898000      0.330704    0.63742300    0.77823800
Se    1.32507000   11.36988000   13.55733000     -0.402085    0.29285500    0.01758600
Se    1.92789000   13.57756000    1.38695000      0.209463   -0.55210500    0.45624200
Se    1.55787000   21.20656000   12.99724000      0.339525    0.33883700   -0.27337500
Se    3.97014000   22.99490000    3.19798000      0.681306   -0.09350400    0.29548900
Se    5.55337000   19.12323000   15.58682000     -0.100696   -0.42033900    0.18739000
Se    9.32951000    5.46510000    7.66963000     -0.547356    0.48246600    0.26720700
Se    7.39143000    4.36666000   12.92766000      0.125163    0.72888500   -0.67975400
Se    5.84595000    7.43043000    4.41511000     -0.771013    0.53134200    0.80986000
Se    7.97643000   10.74884000   12.17065000     -0.150135    0.66384900   -0.72628700
Se    7.52627000   16.08335000    2.59460000     -0.192628   -0.53510300   -0.53169500
Se   11.96021000   14.99399000   13.68301000      0.172300   -0.57377400   -0.22998000
Se    7.00543000   21.81776000    5.04859000      0.854321    0.35002700    2.46691900
Se    8.01605000   21.94015000   13.57892000     -1.003546    0.20514300    0.42656400
Se   12.34183000    1.99309000    3.92807000      0.210015   -0.90058400   -0.70850200
Se    9.97805000    1.61727000   12.15936000     -0.888781    0.90635200   -1.77601800
Se   14.00614000    9.90216000    2.93130000      0.018108    1.38792200    0.48861200
Se   12.11398000   10.24609000   13.31760000     -0.805295    0.95128000   -0.47715200
Se   12.36349000   14.93860000    3.30452000     -0.320863    0.49579800    0.05870200
Se   14.06171000   17.33048000   12.94090000      0.689417    0.36684400    0.58986800
Se   13.00207000   19.23831000    3.14756000     -0.410715   -0.07804500   -1.45789000
Se   13.73965000   22.98176000   15.39477000      0.785456    0.26398300   -0.29558400
Se   17.38104000    4.85349000    0.98746000      1.093154    1.19571900   -1.11194900
Se   16.05350000    6.10325000   12.59740000     -0.652890    0.19379400    0.48028200
Se   18.47113000    8.83203000    4.00340000     -1.527734    0.17800700    0.23616800
Se   21.06641000   13.54284000   12.93497000     -0.945152   -0.11821700   -0.14423200
Se   21.85220000   15.25789000    3.00459000      0.554397   -0.36937200   -0.31796000
Se   19.42216000   15.64352000   10.02311000     -0.117254   -0.08058700   -0.23590400
Se   19.64885000   21.85861000    3.35378000      0.348122   -0.10680500   -0.29959500
Se   16.56917000   22.48141000   11.46965000     -0.264133    0.41938400   -0.78360300
