384
23.00800000 23.00800000 19.32000000
Ge    5.78589000    5.07420000   10.64852000     -0.371409   -0.87040300   -0.00615200
Ge    5.41189000    7.10929000    2.07127000      0.124536   -0.50739700   -0.52893400
Ge    1.57462000   11.23781000    8.04956000      0.182359    0.19827400    0.15767500
Ge    5.29211000   11.31701000   18.27423000      0.825106    0.46366900   -0.83314100
Ge    4.42607000   14.79613000    9.33121000      0.394144    0.45216900    3.33333300
Ge    8.41416000   17.91427000    0.76227000     -1.547303   -0.00253300    0.54683500
Ge    9.02840000   19.84089000    9.46213000     -2.476182   -1.56838800   -0.10715900
Ge    4.01595000    3.23859000   18.80554000      0.396562    0.57959300   -0.08588200
Ge    8.76546000    5.97910000   10.47011000      0.827845   -0.85373300    0.42855700
Ge   10.92473000    5.45490000    1.43624000      1.482978   -1.97707000    0.76802900
Ge   11.15945000   12.71570000   10.38656000     -1.024400   -0.29310300   -0.14329000
Ge   11.76091000   12.52602000   17.74089000      0.407036   -0.47255800   -0.55635800
Ge    9.49498000   16.96671000    7.67052000      0.230428   -0.54964000   -0.27062700
Ge   13.56073000   15.48945000    1.00641000     -0.073945   -0.36795500   -0.01722600
Ge   10.82400000    1.99925000    9.51132000     -0.101946    0.04010500   -0.23025800
Ge   16.12026000   21.29099000    0.21097000     -0.581489    1.86906000   -0.14739000
Ge   19.37888000    5.30265000   10.38985000     -0.360709   -0.10308300    0.18642700
Ge   19.00455000    8.82426000   17.39101000     -0.244208    0.30702400    0.20116800
Ge   21.37598000   14.38531000   10.71845000      0.806378   -0.32849700   -0.59946800
Ge   16.70185000   10.99390000   19.06434000      0.390256    0.21809900    0.37109600
Ge   13.86414000   17.37478000    7.85665000      1.047539   -0.18889000   -0.12552900
Ge   18.62863000   13.92242000    1.46281000     -0.671957   -1.79516900    0.33365000
Ge   19.96369000    0.66815000   10.63385000     -0.120675    0.01066000   -0.55562800
Ge   17.84985000    2.44750000   19.21259000      0.248641    0.14382800   -0.36387000
Ge    0.01629000    6.68980000    9.24739000      0.678845   -0.00230300    0.23280300
Ge   21.80872000    3.24309000    0.40474000     -1.194918   -0.67607200   -0.14003400
Ge    1.48866000   11.14331000   10.93887000      0.566692    0.42905100   -0.00278800
Ge    0.37464000   11.58237000   18.73653000      0.849010   -0.38602300   -0.02558400
Ge   22.83786000   14.83993000    8.26333000      0.102301    0.25299300    0.07475300
Ge    0.56016000   15.45774000   17.01483000      1.228813   -0.47673100   -0.34018300
Ge   20.31168000   20.90031000    9.99873000      0.443785   -0.29407800   -0.26142200
Ge    2.79382000   20.89879000   19.18142000      0.987601    0.63885600    0.52134400
Ge    5.74740000    8.74608000    8.18709000      0.039998   -0.34601400    0.05207700
Ge    0.65728000    6.89641000    0.27797000      0.199747    0.16819500   -0.51410300
Ge   22.21409000    7.95534000    5.82483000      0.019613   -0.03853200    0.29651500
Ge    3.32255000   13.43566000   14.89638000     -0.122576   -0.36217900    1.06078700
Ge    4.38147000   17.24267000    3.51947000      0.400364    0.09034800   -0.18917600
Ge    1.03957000   19.40025000   17.87019000     -0.280442   -0.18041300   -0.32984900
Ge    4.55780000   19.02858000   10.47357000      0.386996    0.20063300   -0.41897700
Ge    3.53287000   22.87098000   16.35477000      0.280234    1.17973200    0.44980000
Ge    8.34037000    3.33139000    6.54004000     -0.376028   -0.06317600    0.25936400
Ge    7.77416000    4.33588000   18.83440000      1.367596   -1.10708300    0.25417400
Ge    6.71767000   13.06838000    3.78828000      0.657203    0.28141100   -0.01694400
Ge    8.08699000    7.92953000    1.82661000      0.671846   -0.10440200   -0.12920800
Ge    5.61165000   16.47269000    6.97476000      1.755258    1.29260900   -0.12662800
Ge    9.08301000   15.12963000   18.21296000     -0.188954   -0.87882300   -0.35172400
Ge    9.75133000    0.53964000    6.20412000     -0.002230   -0.00207100    0.20260000
Ge   10.42937000   21.56544000   13.83086000      0.757677   -0.40106700    0.34171700
Ge   13.10361000    6.41642000    8.87856000     -0.550157   -0.89726800    0.28372800
Ge   14.21660000    6.61248000   17.61020000      0.205451   -0.33280900   -0.41974000
Ge   12.62861000    9.76597000    8.90014000     -0.624374   -0.25327400    0.11461000
Ge   15.82265000   13.51604000   15.79458000      0.147413   -0.26964000    0.03862900
Ge   13.50359000   17.27890000    4.44501000      1.190913   -0.84337700    1.05368300
Ge   14.19789000   18.05417000    1.10030000      0.156579    1.31372700    0.24963600
Ge   14.22843000   21.79743000    7.96139000      1.493820    0.05417900    2.50480700
Ge   16.68630000    1.72257000   14.62055000      1.311700   -0.22614300    0.92223500
Ge   19.75389000    4.40744000    6.77367000      1.224282   -0.82720400    0.12150700
Ge   20.67485000    6.23677000   17.14929000     -0.127449   -0.76612100   -0.70060700
Ge   16.28540000   10.79283000    7.02694000      0.810264    0.81465000    1.07505000
Ge   19.99812000   14.31918000   17.58949000     -0.355616    0.53693300   -1.10915500
Ge   18.96574000   16.88471000    5.04090000      0.208688   -0.68314800    0.21285300
Ge   20.14142000   18.60080000   16.42748000      0.261921    0.22753500    0.63461800
Ge    0.02302000    1.99104000    4.54979000     -0.273512    0.08279400    0.42126300
Ge   19.19451000   22.08620000    0.35958000      0.639496    0.25179700    0.18622600
Ge    5.44353000    3.32166000    7.13436000      0.396327   -0.23563900   -0.68682300
Ge    2.41311000    5.16114000   15.33957000     -0.474834   -0.81478500    0.30623400
Ge    2.57558000    5.90828000    4.59029000     -0.472693   -0.73037700   -0.09399100
Ge    3.23299000    9.90307000   13.91377000      0.289453    0.05217000    1.15157600
Ge    1.62365000   15.23711000    4.62434000     -0.170877    0.34377100   -0.08660000
Ge    0.94313000   18.54151000   13.03248000     -0.692581   -0.15577000   -0.08203800
Ge    1.57341000    2.04979000    7.02567000      0.204517    0.20367200   -0.03820000
Ge    4.50551000   16.60519000   16.52078000      0.177587   -0.31021600   -0.09487900
Ge    9.77707000    2.69198000    2.38010000     -0.186688    0.65518600   -0.65469800
Ge   10.60488000    2.02287000   15.98622000      0.829355    2.82740800    1.57859300
Ge    8.46228000    8.84281000    5.82422000      0.145222    0.36420600   -0.49587300
Ge    9.66732000    8.27003000   14.19701000     -0.359116   -0.61057300   -0.60590400
Ge   10.71775000   13.94785000    5.59362000      0.167696    0.15226600   -0.27101400
Ge   11.20662000   12.35753000   14.52391000     -0.125376   -0.38370900   -0.05254800
Ge    5.95239000   21.30982000    2.95610000     -0.314108   -0.02750800   -0.91119000
Ge    9.86727000   18.03501000   17.09590000      0.034071    0.59481000   -0.25528500
Ge   13.89990000    1.97363000    6.34749000     -0.185811    0.31755600   -0.60750700
Ge   10.45740000    5.49382000   15.21077000      1.751985    0.45675100   -0.59790100
Ge   15.04309000    6.70288000    6.29443000      0.158749    0.10801400    0.09269800
Ge   13.61957000    9.45221000   14.97673000      0.851996    0.46449500    0.38538500
Ge   14.59150000   14.09754000    4.32763000      0.436294   -0.40423800    0.44072500
Ge   15.99102000   16.60789000   14.91471000     -0.011000    0.01229300    0.53568000
Ge   10.75723000   17.57347000    2.76501000     -0.067106    0.27792500    0.65510500
Ge   12.82313000   22.05821000   17.33365000     -0.537231   -1.46797000   -0.77568300
Ge   17.36205000    5.30308000    4.02437000      0.595758    1.30210700    0.02417000
Ge   21.09104000    3.03735000   12.11297000     -1.212916   -1.75616200    1.29985200
Ge   19.28297000    8.28499000    7.12658000      0.455938    0.60279800    0.04488700
Ge   18.71991000   11.71705000   14.59556000      0.384197    0.38877600   -0.22796100
Ge   22.97146000   14.72278000    0.76743000     -1.385948    1.65559200    0.97982900
Ge   18.60885000   15.01788000   13.14814000      0.048560   -0.23652800    0.43851000
Ge   20.13027000   20.51329000    5.90231000      0.054999   -0.22239600   -0.61358100
Ge   22.52269000   21.27564000   15.21167000      0.151187   -0.64360500    0.09402700
Ge    4.47533000    2.78651000    2.98950000      0.979704   -0.24929300    0.43379000
Ge    5.88719000    4.53462000   15.33914000      0.263657    0.17692200    0.44957700
Ge    4.17035000    9.51039000    4.74774000      0.009027   -0.50176600   -0.54202100
Ge    4.65420000    8.23472000   12.41502000      0.615219   -0.08672700   -0.20298900
Ge    6.00424000   14.42335000    0.89129000      0.571558    1.25207100   -0.00724500
Ge    3.28241000   15.18350000   12.81318000     -0.005415   -0.19010100   -0.70740400
Ge    4.27433000   22.39988000    6.20433000     -0.037609   -0.21147000   -1.08708000
Ge    7.14597000   19.84066000   12.63010000      1.425164    0.75326100   -1.01407500
Ge   12.13101000    4.83626000    5.26476000      1.868092   -2.07364900    1.79783800
Ge    7.58009000    1.97048000   12.73634000     -0.394419   -0.72774100    0.69074700
Ge   11.98404000   10.57859000    1.52202000      0.028732   -1.02738300    0.15775800
Ge   13.15119000    7.22594000   13.62138000      0.215332   -0.39925000    0.16277700
Ge    9.92466000   13.71997000    1.55943000     -0.128014   -0.04313100    0.55837700
Ge    8.87745000   15.45599000   11.73008000     -0.199343    0.57467600   -0.63065400
Ge   12.04905000   22.17603000    1.13984000      0.358395   -0.18956900    0.98352800
Ge   11.75760000   18.76503000   11.69549000      1.040853    0.59409700   -0.24901500
Ge   21.44993000    0.49589000   17.52049000     -0.318554    0.84180600    0.17196300
Ge   13.87404000    4.64932000   11.74122000      0.628202   -0.09482300   -0.95466300
Ge   18.12598000    7.84993000    1.61862000     -0.149758    0.63095100   -0.22649700
Ge   15.75583000    8.15471000   10.16829000      1.644588   -0.73272500   -0.25834100
Ge   17.84375000   11.71950000    3.31658000     -0.068183   -0.30694000   -0.18209900
Ge   19.36947000   14.74739000    7.61842000      1.191360    0.15374500   -0.14866900
Ge   18.18717000   18.39094000    2.97642000     -0.368366   -0.56963400   -0.08795300
Ge   15.56523000   20.20893000   11.63843000      0.596426   -0.34427500   -0.56223900
Ge    0.47110000    0.21902000    2.44114000      0.126040    0.62577000    0.05465400
Ge    0.29165000    0.23229000   11.67015000      0.960617    0.30110700    0.33881600
Ge   19.89297000    6.53924000    4.00356000     -0.103252   -0.61341000    1.04797800
Ge   22.70014000    9.33766000   13.26134000     -0.641041    0.54652900   -0.32047500
Ge   21.15294000   12.77443000    3.62619000      0.220737    0.66611700    0.07790300
Ge    0.16300000   17.55367000    9.48439000      0.023060   -0.45223700    0.92050600
Ge    3.00581000   20.70946000    3.80393000     -0.635148   -0.27008000   -0.34395400
Ge   20.58911000   16.76149000   12.53619000      0.546213    0.76425500   -0.27050100
Se    0.52063000    1.36043000   18.65917000      0.326238    0.23122800    0.12465800
Se    1.51133000    3.35531000   11.21476000      1.388760   -0.93239900    0.13001300
Se   22.77898000    6.77075000    2.58353000      0.110520    0.31488600    0.37258600
Se   22.81284000    6.88124000   12.77340000      0.044882    0.21546300   -0.02018400
Se    3.76642000   10.89637000    0.69735000     -0.466867   -0.15687600    1.06037500
Se    1.47797000   13.51332000    9.55716000      0.776196   -0.26129100    0.37744100
Se    1.86028000   18.02620000    3.97729000     -0.365764   -0.21458800   -0.21318700
Se    1.27693000   19.92547000    9.55888000     -1.837372   -0.43664900    0.50414000
Se    7.23430000    2.28126000    1.50312000      0.032196   -0.48751200   -0.43882100
Se    6.73079000    1.46513000   10.51624000     -0.112764    0.22062900   -0.39864000
Se    7.55525000    5.41304000    2.58384000      0.057795   -0.03559900   -0.58277600
Se   10.40671000    7.10329000   12.18566000      0.186745    0.23647400    0.38392900
Se    8.72620000   11.62122000    0.99438000     -0.414337   -0.03499600   -0.01090800
Se    5.89995000   14.83124000   12.47196000      0.016659    0.12312400    0.51556100
Se    4.27540000   19.59125000    1.44945000      0.219516   -0.02219200    0.11652400
Se    9.27791000   18.48941000   11.43908000     -0.471952   -0.37034400    0.17047100
Se   14.09670000    3.98597000    0.99334000     -0.846682   -1.29168800    0.20737400
Se   13.06897000    0.38040000    9.64031000      0.158127    0.29828200    0.02116700
Se    9.74552000    6.67145000    0.01780000     -1.794537    1.92175200   -0.75087800
Se    9.55082000    9.88667000    9.01503000      0.073877   -0.61705400    0.45171800
Se   12.60230000   12.91371000    0.88550000     -0.447559    0.09299200   -0.71160100
Se   13.26548000   11.69526000   10.23974000      1.092846    0.07161600    0.19612700
Se   16.09381000   15.23188000    1.41595000     -0.593450   -0.13759300    0.07723200
Se   11.59704000   18.24277000    8.19215000     -0.672905   -0.27838100    0.12967300
Se   16.67397000    3.43174000    2.58065000     -0.482667   -1.10770300    1.27922000
Se   15.28680000    2.55785000   11.15202000     -0.524079    0.48496400    0.95877800
Se   17.08697000    6.38083000   17.53028000      0.672066    0.51866100   -0.44232200
Se   21.17188000    7.27288000   11.05260000      0.279229    0.30222900    0.38382500
Se   19.04164000   10.27595000    0.59945000     -0.733768   -0.44627900   -0.14220600
Se   17.48408000   15.95907000    6.84258000     -0.577822    0.05493500    0.08928600
Se   18.98228000   16.18927000    1.26897000      1.177197    2.10631500    0.24918900
Se   17.63667000   18.51637000   10.55877000      0.062225    0.57310600    0.01416000
Se    3.71941000    4.85349000    2.04715000     -0.134907    0.28033900   -0.54248200
Se    3.25816000    6.43131000   11.33128000      0.296602   -0.03349500    0.57018600
Se    5.39279000   10.47702000    2.66550000     -0.719120    0.41249400   -0.74030900
Se    5.34200000   13.08076000   11.04014000     -0.511911    0.25634700   -0.25802200
Se    4.15176000   14.75668000    4.03028000     -0.441660    0.21684000   -0.05713400
Se    3.06979000   16.70535000   10.49777000      0.149811   -0.23787900   -0.21449600
Se    4.09441000    0.06071000    0.03318000     -0.215001   -0.20985900   -0.74624100
Se    6.82646000   20.68486000   10.27549000     -0.296627    0.15281800    0.30021000
Se   10.91050000    6.19151000    4.04210000     -1.910925    1.54385000   -2.02509600
Se    7.86822000    3.29155000    9.36465000     -0.053281    0.17570800    0.08019300
Se   10.08418000   10.48911000   17.08016000      0.786738    0.54409400    0.40086400
Se    7.26155000   10.61948000    8.75793000      0.247815    0.10534500    0.31076000
Se   10.60599000   16.94126000    0.20556000      1.110426    0.08347300    0.19807000
Se   11.41852000   14.99089000   11.10515000      0.844237    1.14875800    0.66181800
Se   14.05848000    0.09118000    3.26397000     -0.796155    0.55183100   -1.09114800
Se   11.88903000   21.43243000   11.81825000      0.124301   -0.60850300    0.12667100
Se   13.38588000    6.27470000    0.93134000     -0.362692    0.07392900    0.16936200
Se   18.20011000    7.00477000   12.11308000      0.198384    0.44341600   -0.32497100
Se   15.67968000    8.53624000    0.18428000     -0.082747    0.26378800    0.10245200
Se   15.08993000   10.60129000   13.23122000      0.830803   -0.94469300    0.24414300
Se   18.92974000   14.36979000    4.01399000     -0.613340    0.01628100   -0.35333900
Se   14.46334000   14.38071000    9.50381000     -0.425879   -2.33367700   -0.30449400
Se   17.39650000   22.93354000    1.90592000     -0.381143   -0.28704000   -0.44963100
Se   14.04531000   19.88329000    9.52776000     -0.114914   -0.45010400    0.13300200
Se   21.33008000    0.86438000    1.41677000     -0.782477   -0.42557900    0.47934500
Se   22.54829000    4.38351000   10.96502000      0.193546    2.00517800   -1.33650300
Se   20.07642000    6.03470000    1.66233000      0.511772    0.07400000   -0.92047200
Se   22.20468000   10.55315000   11.03331000     -0.741377   -0.65053300    0.47503100
Se   21.45808000   13.02012000   19.27350000      0.102210   -0.21263600    0.65654600
Se    0.18438000   15.91593000   11.80371000     -0.338275    0.65036000   -0.28567900
Se    1.22077000   21.04741000    1.74968000     -0.873010   -0.54483900    0.77599000
Se   20.30559000   21.04853000   14.24703000     -0.146784    0.08817500   -0.56103700
Se    4.38266000    5.01563000    8.48069000     -0.449682    0.14089600    0.16384700
Se    0.58619000    6.33408000   16.59143000     -0.421682   -0.22896400   -0.03376400
Se    4.38885000   10.97467000    8.54161000     -0.697070    0.11538300    0.31582200
Se    3.90145000    8.19811000   17.35443000     -0.178186    1.19409500    0.00930100
Se    4.32749000   18.57529000    7.89341000     -0.883990   -0.78721800    0.33463300
Se   22.48690000   18.22934000   15.53999000      0.889873    0.29705700   -0.37204500
Se    3.57814000   21.90666000   11.85095000     -0.196921    0.08723500    0.30012900
Se    9.04749000    0.47601000   16.24991000     -2.749932   -1.54713500    1.06695900
Se    6.82969000    4.03790000    4.45121000      0.253807    0.11543800   -0.18534700
Se    5.67772000    5.24062000   18.24852000     -0.998981   -0.56143800   -0.38538300
Se    6.35929000   10.76679000    5.32210000      1.125851   -1.02654500   -0.26947000
Se    4.26389000    6.66232000   15.46913000      0.790587    0.43854600   -0.43033700
Se    6.36669000   16.53882000    9.76589000     -0.304243   -0.85653600   -1.16943300
Se    6.98556000   16.38530000   18.35850000     -0.633069   -0.19093600    0.42204500
Se    7.88876000   18.69024000    7.43410000      0.493361    0.28490000    0.67785900
Se    7.72219000   22.57234000    1.66415000      0.375702    0.19238700   -0.50681300
Se   15.04306000    1.50243000    8.47024000     -0.142846    0.04805700    0.56793600
Se   12.49942000    4.18036000   16.22926000     -0.159430    0.56936900   -0.41427400
Se   13.46464000    7.94982000   10.71158000     -2.044973    0.76034200    0.68364100
Se   13.94352000   11.56516000   16.49169000     -0.925038    0.05348400    0.37529100
Se   13.46671000   15.09419000    6.43631000     -0.446620   -0.02378200    0.47665000
Se   13.67857000   15.79024000   17.64390000      0.517806    0.14582800   -0.04237800
Se   12.87113000   22.00649000    6.17138000     -1.987048    0.10491800   -1.71394900
Se   17.87655000   21.17221000   17.68917000     -0.512292   -0.58007200   -0.55952800
Se   19.73037000    2.87828000    9.29727000     -0.268704    0.43961400    0.09414900
Se   19.70573000    3.48813000   17.80545000     -0.149452   -0.57270400    0.28231900
Se   17.94990000    9.82487000    8.68103000     -0.087162    0.04721500   -0.36793500
Se   17.38021000   10.72215000   16.62918000     -0.516545    0.02265700   -0.40603300
Se   15.38628000   16.29204000    9.88662000      0.335164    1.69373800   -0.53525100
Se   18.23017000   15.05872000   15.73974000     -0.629768    0.17917000   -0.96932700
Se   18.60628000   18.78897000    8.21591000     -1.226967    0.14099100    0.22152500
Se   20.30711000   19.50178000    2.36513000      0.130516    1.00832800   -0.51431100
Se    4.49587000    1.08974000    7.89977000      0.249699   -0.21701800    0.51714600
Se    0.43425000    3.80886000   17.29985000     -0.116069    0.33115300    0.28019600
Se    6.74585000    7.27346000   10.29220000     -0.442556    1.18292700    0.22397800
Se    3.29686000    7.17363000    0.02445000     -0.619441   -0.28489700    0.37338900
Se    3.98847000   14.73370000    7.12531000     -2.128237   -0.27097800   -1.13986800
Se    4.61793000   13.62547000   17.00219000      0.127690    0.33189600    0.10065000
Se    3.17415000   21.06657000    9.39860000      1.421235    0.78586900    0.17128300
Se   22.45676000   16.84389000   18.71621000     -0.021885   -0.22371600    1.01523900
Se    8.74853000   22.91909000    8.81550000      0.941557    0.53604900   -0.43236000
Se   10.69681000    3.13209000   19.27087000     -0.087645    0.23067800    1.27613200
Se   11.60507000    4.84450000   10.12901000      0.444999   -0.20863800   -0.12646100
Se    6.91462000    8.43309000   18.82421000     -0.451376    0.28549900   -0.50103600
Se   10.37485000   13.05754000    8.13436000     -0.585674    0.84598400    0.11421400
Se    8.15551000   11.75044000   17.93586000      0.050652    0.37971000   -0.12443400
Se   10.54154000   21.19542000    8.54100000      0.941815    1.54529100   -0.76756100
Se   11.62835000   15.16823000   16.70180000     -0.134984   -0.50290000   -0.26687000
Se   17.19658000   21.43339000    8.04435000     -0.445331   -0.77309000   -0.11222100
Se   15.21200000    4.26493000   18.30309000      0.386276   -0.48316400    0.18040900
Se   15.30651000    5.52903000    9.10500000      0.196136    0.24223500    0.29962300
Se   13.31919000    8.76510000   19.12615000     -0.888847    1.51647800    0.08420400
Se   16.35459000   11.93430000    9.24929000     -0.583560    0.39745000   -0.16468800
Se   15.99121000   13.69398000   18.49841000      0.521454   -0.52443300    0.10192500
Se   15.12496000   18.70640000    6.10967000     -0.259180   -0.24093500   -0.06655800
Se   16.68282000   19.27466000    1.16752000     -0.495011   -1.85306300    0.13751400
Se   22.16220000   22.88569000    9.53018000     -0.602448   -0.69360100   -0.48630500
Se   22.76901000    1.38824000   15.28762000      0.337658   -1.72579100    0.32610000
Se   20.85660000    6.51919000    8.07851000     -1.179644   -0.68578400   -0.67303600
Se   21.50977000    8.33781000   18.50676000      0.247974   -0.21136800    0.52800500
Se   21.39254000    9.53755000    7.97389000      0.034828    0.24223900   -0.72628200
Se   21.94640000   10.24112000   17.11168000      0.272826    0.16309100   -0.10160900
Se   21.07123000   16.15904000    6.14859000     -0.542417   -0.53931300    0.88656200
Se   18.64412000   16.68820000   18.36437000     -0.074232   -0.17021800   -0.69650700
Se    2.29339000    1.79975000    9.42881000      0.038248    0.08397200    0.16097900
Se    3.77373000    2.98815000   15.62240000     -0.418604   -0.35765700    0.53037800
Se    1.28697000    8.27415000    7.36219000      0.168414   -0.43645800    0.14916900
Se    1.93804000    8.93696000   15.82460000     -0.091555    0.25028700    0.07951300
Se    1.71611000   16.51252000    7.00426000     -0.258840   -0.09254200   -0.15532600
Se    1.34930000   12.49451000   16.28494000     -0.167920    0.40476300    0.28828900
Se    0.52412000   18.65268000    6.03456000      0.832074   -0.78154100    0.07860600
Se    2.88243000   20.61932000   16.29209000     -0.165049   -0.99032600   -0.41462700
Se    7.68901000    1.07949000    4.55209000     -0.374652    0.54445000    0.69790400
Se   12.80464000    0.82461000   18.70321000     -0.413033    1.61347700    1.33237100
Se    7.39580000    6.71132000    6.83711000      0.785153   -0.05855500   -0.00965100
Se    7.25983000    7.33431000   14.51338000      0.716444    0.04247100    0.51561200
Se    7.01080000   14.08982000    6.36876000      0.709708   -0.43201600   -0.71308600
Se    8.42066000   17.17488000   14.86635000      0.074864    0.91532300   -0.06160000
Se    4.97173000   19.75293000    6.02809000      0.247853    0.44906200   -0.71121800
Se    8.47811000   15.04464000   15.57309000      0.123397   -1.42909300    0.30809300
Se   15.10905000   21.61311000    5.34506000      0.702655   -0.55551000   -0.03030800
Se   14.85364000    1.79164000   16.68843000      0.147913   -0.41217800   -0.50815200
Se   12.26140000    7.02315000    6.57035000      0.264737   -0.16647200    0.37226000
Se   10.95463000    7.91864000   16.19151000      0.145040   -0.45275200   -0.15106400
Se   13.36490000   11.71266000    4.57261000     -0.157106   -0.76068700   -0.34112400
Se   14.47517000   14.26155000   13.58108000      0.092138    0.02344700   -0.08102400
Se    9.03824000   15.96395000    5.47728000      0.647183   -0.18873300   -0.04432000
Se   13.58964000   20.42665000   18.93889000      0.238540   -0.70153200    0.59770900
Se   20.63363000    1.97866000    5.30963000     -0.103920    0.01183900    0.13378800
Se   18.31371000    0.48365000   17.40639000      0.487352    0.09589100   -0.16242600
Se   17.45657000    4.90044000    6.42712000     -0.616534   -0.00393600    0.64852600
Se   18.36127000    6.87298000   15.51232000     -0.080597    0.54050500    0.49492100
Se   20.66672000    9.33329000    3.72567000      1.787457    0.86911300   -0.41117600
Se   17.01471000   13.17835000   12.98252000     -0.461953   -0.18709400    0.01268500
Se   17.60720000   19.85649000    4.77163000      0.144235    0.79859800    1.12081900
Se   17.90547000   22.87509000   13.39104000     -1.034610   -0.21486500   -0.04375400
Se    3.38033000    6.82064000    6.69554000     -0.118124    0.79567200    0.88160500
Se    3.84801000    4.94858000   13.28819000     -0.369087   -0.71391300   -0.69254300
Se    1.68540000    8.51206000    3.74654000     -0.295473   -0.33071000   -0.46751800
Se    5.28566000   10.74976000   15.64788000     -0.417712   -0.05668400   -0.31789600
Se    5.12318000   12.43988000    6.39439000     -0.550111    0.50500500    0.81891600
Se    3.08827000   17.15093000   18.54773000      0.144049    0.12879100   -0.08906800
Se    1.61925000   21.76790000    6.12308000      0.296489   -0.17085800   -0.16081400
Se    4.56270000    0.65830000   14.26291000     -0.006776   -0.41317100    0.51241100
Se   11.09481000    2.88645000    7.05310000      0.072079   -0.61725900   -0.48417200
Se    8.82039000    4.11797000   16.03973000     -0.887032   -1.10896200    0.73553400
Se   10.48078000   10.18416000    6.87265000     -0.326452   -0.21025800   -0.49295100
Se    8.69549000   10.48194000   14.33845000      0.256585    0.75314700    0.86702300
Se    8.49023000   14.90832000    9.13682000      0.151887    0.69370800    0.14812600
Se   12.10793000   18.03900000   15.84910000      0.643853   -0.29051100    0.58091600
Se    8.86121000   19.49490000    3.40767000      0.852896   -0.10814900   -0.92809300
Se   10.77707000   20.90593000   16.87069000     -0.405710    0.38743800    0.20352600
Se   14.59390000    4.36064000    5.28633000     -0.939377   -1.07460000    0.19064100
Se   18.42735000    3.94946000   14.64569000     -0.515670   -0.75710300    0.43673400
Se   14.37078000    9.45155000    7.16390000     -0.345430   -0.52216500   -0.13973300
Se   17.49262000    9.76188000   13.71679000     -0.787456   -0.36486100   -0.25723000
Se   16.97516000   12.65367000    5.52128000     -0.105392   -0.27876500   -0.06519600
Se   16.26371000   19.13302000   16.01173000     -0.572441   -0.36513400   -0.80364200
Se   15.97390000    0.92227000    5.20733000     -0.067176    0.32804700    0.04065200
Se   18.49945000    3.38175000   12.36816000      0.306963   -0.21638600   -0.98260200
Se   22.94269000    3.91447000    7.61308000      0.511008    0.66751400   -0.30797500
Se   22.43656000    3.47289000   14.49194000     -0.273467    1.19284400   -0.80680600
Se   20.05363000   12.46557000    7.21529000      0.194528    0.38012600    0.24704300
Se   21.25773000   12.52767000   15.70365000     -0.229764    0.36412500    0.20290100
Se   22.80918000   12.95707000    6.60805000     -0.912179   -0.61964700   -0.71120300
Se   19.18239000   18.30201000   14.30006000     -0.109209   -0.07403200   -0.65021300
Se   20.93930000   18.79965000    8.18420000      0.377870    0.94213600   -0.39388200
Se   21.86795000   21.06050000   17.68729000      0.512343   -0.60925500    0.16661800
Se    3.62251000    3.41013000    5.32253000     -0.943712    0.38392500    0.43289700
Se    7.44929000    1.26295000   18.24045000      0.677579    0.59048200   -0.35492100
Se    0.97387000    4.37052000    0.38401000      1.413214    0.43312300   -0.14750500
Se    3.31697000    8.93041000   10.45571000     -0.145334    0.86010600   -1.01546400
Se    0.64278000   12.26648000    3.20457000      0.505636   -0.94230400   -1.54188100
Se    2.25667000   16.34682000   14.85174000      0.595897    0.19989800    0.11496100
Se    3.70408000   15.78142000    1.29014000      0.359224    0.57816800   -0.28968100
Se    5.31102000   18.57054000   13.32169000     -0.885786   -0.43113500    0.29916300
Se   10.44076000    0.39806000    3.22457000      0.370083   -0.04457700   -0.34484000
Se   11.28793000    1.11295000   13.90626000      1.448685   -0.90512800   -0.31346300
Se    9.86145000    8.63448000    3.53209000     -0.244349    0.24609500   -0.17358700
Se    7.23862000    8.99746000   16.42377000     -0.153466   -0.32504900    0.17701700
Se    9.09039000   12.09559000    3.82222000      0.669270    0.87885200   -0.36810900
Se    9.21269000   13.04126000   12.22724000      0.455556   -1.90327200   -0.02306400
Se    9.58986000   20.57248000    1.28755000     -0.434859   -0.27107400    0.50295800
Se   10.85024000   18.85168000   14.11156000     -0.786892    0.31211300   -0.53841700
Se   18.81581000   22.96822000    8.18583000      0.558731    0.32299200   -0.09629000
Se   14.75035000    2.45637000   13.65910000     -1.033319    0.23582100   -1.59441400
Se   15.49575000    7.04583000    3.83434000      0.432058    0.00930200   -0.12366400
Se   14.44430000    5.50262000   15.05374000     -0.674387   -0.09642800    0.28262000
Se   15.59363000   11.87279000    1.89144000      0.204857   -0.41000500    0.29765000
Se   16.50649000   17.06384000   12.45318000      0.416135   -0.20649900    0.30132900
Se   16.05043000   16.31848000    3.94374000     -0.708845    0.46503600   -0.83383300
Se   14.84748000   19.64680000   14.16181000     -0.038602    0.13067800    0.52080700
Se   22.44103000   22.61343000    5.38568000      0.499090   -0.22276700   -0.40268500
Se   21.14718000    0.27774000   12.98084000     -0.505848   -0.15641600    0.88634300
Se   20.53379000    3.67513000    3.67268000     -0.481857    0.39530300   -0.74888900
Se   20.63621000    9.30013000   14.53863000     -0.256466    0.11425700   -0.21365700
Se    2.15307000   12.21608000    5.88444000     -0.025552    0.00454800   -0.12946100
Se   21.60006000   15.09507000   15.58664000     -0.531101   -0.20140900    0.20161500
Se   21.54612000   18.69498000    4.33457000     -0.139409    0.67920400    0.43832200
Se   21.68913000   19.03640000   11.24602000      0.631691   -0.57279300    0.76916700
Se    0.16359000    5.16210000    5.51605000      0.224771   -0.44820700   -0.26618200
Se   20.40080000    5.31807000   14.46792000      0.783540    0.58336100    0.41099300
Se    0.21562000    9.77020000    2.05226000      0.275812    0.60185500    0.77741200
Se    1.27089000   11.43013000   13.57123000      0.193090   -0.03438100   -0.06536800
Se    1.92410000   13.54804000    1.35243000      0.185592   -0.62540400    0.48172800
Se    1.58277000   21.27950000   13.03066000      0.215795    0.09001100   -0.32042400
Se    4.00559000    0.01204000    3.22601000      0.508441   -0.21003900    0.25178800
Se    5.54387000   19.07353000   15.61514000     -0.057802   -0.41832600    0.26067900
Se    9.32270000    5.43222000    7.68734000     -0.686023    0.47463000    0.13498800
Se    7.42633000    4.36127000   12.88708000      0.126919    0.88473900   -0.54242400
Se    5.84471000    7.43415000    4.41365000     -0.847008    0.64230400    0.73220300
Se    7.94830000   10.78233000   12.20072000     -0.178243    0.71967100   -1.10316500
Se    7.50928000   16.02550000    2.56934000     -0.257342   -0.52974700   -0.44361700
Se   11.91607000   15.02458000   13.70883000      0.275657   -0.71128900   -0.30430400
Se    7.00781000   21.89306000    5.08065000      0.328509   -0.00961600    1.56808600
Se    8.01008000   21.92654000   13.59844000     -0.764190    0.06197700    0.40207600
Se   12.36359000    1.95908000    3.92900000      0.205179   -0.82672300   -0.64539300
Se    9.97665000    1.59999000   12.14091000     -0.710213    0.80359000   -1.50142800
Se   14.05566000    9.86450000    2.90220000     -0.013046    1.53936400    0.56615200
Se   12.12629000   10.22696000   13.28615000     -0.795548    1.00339000   -0.30350100
Se   12.38639000   14.88964000    3.31441000     -0.639484    0.72816000   -0.10031700
Se   14.11319000   17.32757000   12.99126000      0.250346    0.41611700    0.51836700
Se   12.90974000   19.24718000    3.16637000     -0.273088    0.10111400   -1.42782300
Se   13.73947000    0.01923000   15.40166000      0.641415   -0.07458400   -0.45357400
Se   17.42603000    4.82947000    1.02229000      1.113623    1.18619000   -1.31995100
Se   16.06340000    6.12599000   12.54649000     -0.520880    0.34822100    0.39279800
Se   18.49561000    8.83196000    4.01461000     -2.424876    0.09045300    0.40000200
Se   21.04133000   13.55412000   12.92016000     -1.039760   -0.25033800   -0.03083800
Se   21.81377000   15.30644000    2.99253000      0.688533   -0.82183400   -0.42382500
Se   19.46676000   15.61628000   10.00757000     -0.687866    0.27193700   -0.30614900
Se   19.60799000   21.85193000    3.30481000      0.512123   -0.39070200   -0.12763300
Se   16.57402000   22.47231000   11.44171000      0.175275    0.36480400    0.05127900
