384
23.00800000 23.00800000 19.32000000
Ge    5.90255000    4.40179000   10.74511000     -0.005961    0.88764500    0.19772400
Ge    4.82660000    7.45460000    1.87299000     -0.172662    0.10314600   -1.25374300
Ge    1.42499000   10.89021000    7.85725000      0.532547    0.07126200    0.36612900
Ge    5.38988000   10.60340000   18.53183000      0.551639    0.17924600   -0.39762200
Ge    4.71936000   15.08241000   10.25884000     -0.105306    0.69586900   -0.50105000
Ge    7.62316000   17.87235000    1.35768000     -0.521839   -0.12494700    0.36199500
Ge    8.04543000   19.77018000    8.83037000     -2.011756   -0.48606200    0.47587700
Ge    4.70312000    2.89826000   18.60404000     -0.160942    0.08084600   -0.51397100
Ge    9.27717000    5.98214000   10.97416000     -0.899450   -0.36557600    0.11238200
Ge   10.86472000    6.12551000    1.48235000     -1.159518   -1.36927900    0.89462700
Ge   11.69606000   13.61223000   10.28662000      0.142852   -0.55382300    0.59187200
Ge   12.07829000   12.89646000   17.51667000      0.415248   -1.57389100   -0.02379300
Ge    9.66088000   17.09912000    7.14204000      0.809580    1.31156100    2.52841000
Ge   13.56680000   15.99320000    0.91312000      0.373021   -0.18818200   -0.18800500
Ge   10.93687000    2.13638000    9.75261000     -0.816297    0.61359800   -0.38518400
Ge   16.00389000   21.32733000   18.82842000      0.119761    0.71751900   -0.52836700
Ge   19.40319000    5.62155000   10.65715000      0.320571    0.14089100    0.12252900
Ge   18.44728000    9.02582000   17.72821000     -1.256262    0.30766700   -0.03710500
Ge   21.41758000   13.88080000    9.89046000      0.951825    0.20362400   -0.20819200
Ge   16.34167000   10.59326000   18.88693000      0.714498    1.10061600   -0.13911000
Ge   14.01467000   17.30344000    7.94379000     -0.684420   -0.85874600    0.92261600
Ge   18.70947000   14.10548000    1.51512000      0.271239   -0.01446700   -0.36051300
Ge   19.97333000    0.67820000   10.28300000     -0.632817   -0.01313500    0.25523600
Ge   17.16145000    1.79677000   18.39871000      0.710317    1.46643700   -2.07400900
Ge    0.54659000    7.04878000   10.03431000     -0.560202   -0.11062800    0.09771100
Ge   21.85254000    3.05423000    0.29525000     -0.180837   -0.18811100   -0.26488800
Ge    1.12732000   11.61318000   11.10706000      0.299764    0.48597100    0.89881000
Ge    0.26567000   11.25030000   19.26697000      0.123462   -0.04108700   -0.28731900
Ge   22.80352000   14.35872000    7.23602000     -0.091941   -0.06394800    0.99407500
Ge    0.94995000   15.67438000   16.59054000     -0.289609   -0.59075300   -0.22486700
Ge   20.54936000   20.41652000    9.52886000     -0.153157    0.66701800   -0.36765000
Ge    3.51517000   20.91638000    0.33182000     -0.221517    0.05949000    0.07506100
Ge    6.23082000    8.45766000    8.31789000     -0.263201   -0.31684500   -0.12457500
Ge    0.75291000    5.94163000   19.19212000     -0.124912    0.81150200   -0.06907200
Ge   21.83487000    7.82940000    5.78583000      0.181255    0.14092900    0.27701600
Ge    3.06916000   13.35519000   15.50613000     -1.866004   -0.29908800   -0.40623600
Ge    5.87950000   16.48277000    3.85912000     -0.279599   -0.11318000   -0.75165300
Ge    1.70619000   19.53453000   18.06105000     -0.164201    0.02758100    0.77868800
Ge    4.48097000   18.86064000   10.17640000      0.225217    0.36025800   -0.18575200
Ge    3.03552000   22.69038000   16.04180000      0.459815    1.70248200    0.36051400
Ge    8.14472000    2.81590000    7.27113000      0.361006    0.46232300   -1.52106500
Ge    8.41187000    3.64291000   19.15010000     -0.408742    0.25680000   -0.23185700
Ge    7.13113000   12.79007000    3.49340000      0.123413    0.36000500    0.65036800
Ge    7.86135000    8.91193000    1.72032000     -0.017683   -0.44492500   -0.82890000
Ge    6.13579000   16.25641000    6.53235000     -0.187214   -0.26148200    0.29402200
Ge    8.92912000   14.50516000   17.81327000      0.347527    0.77180000   -0.16590700
Ge   10.08108000   22.60151000    6.19935000     -1.341668    0.84285300   -0.52235200
Ge   10.30683000   21.31983000   13.85679000     -1.246497    0.25022900    1.41792500
Ge   12.99310000    6.12962000    9.19566000      0.208306    0.29513200    0.43157400
Ge   14.10306000    6.51784000   17.88771000      0.294951   -0.43756700   -0.16052600
Ge   12.76214000   10.07131000    8.94148000     -0.216403   -0.72927200   -0.36147500
Ge   15.85479000   13.14200000   15.26178000      0.077477    0.44962900    0.13692000
Ge   14.12886000   17.45210000    4.72725000      0.029411   -0.49354100   -0.59561300
Ge   13.75231000   18.53542000    1.76317000     -0.130839    0.71655000   -0.02059600
Ge   14.96006000   21.64260000    8.82569000      0.337906   -0.17804700    0.16096700
Ge   16.57031000    1.88860000   14.59809000      0.168883   -0.72938700    0.57950800
Ge   20.69283000    3.85428000    7.28300000     -0.302781    0.26946100    0.64257300
Ge   20.19310000    5.60652000   17.67324000      0.757275    0.08842500   -0.51522700
Ge   16.21936000   10.74594000    7.70552000      0.109406   -0.44683300   -1.97588800
Ge   19.41756000   15.70789000   17.45572000     -0.176123   -0.44247000   -0.15083200
Ge   19.14571000   16.42413000    4.57850000     -0.582205    0.39122900    0.25924700
Ge   20.39071000   17.71500000   16.04363000     -0.543003    0.78135900    0.57614800
Ge    0.16677000    2.51129000    4.33630000     -0.383251   -0.11181700    0.77951600
Ge   19.87055000   22.12453000    0.50266000     -0.290018    1.74793500   -1.24072400
Ge    5.32731000    3.09777000    6.84568000      0.127843   -0.20047800   -0.63925800
Ge    2.38747000    4.76737000   15.13941000     -0.112137    0.18480300   -0.44362400
Ge    2.02957000    5.66597000    4.64806000      0.071831   -1.01444100   -0.12067800
Ge    2.88957000    9.43356000   14.33707000     -0.000197    0.82721100   -0.25235700
Ge    1.65440000   15.65081000    4.33087000      0.676430   -0.51772100    0.70878600
Ge    1.38649000   18.05241000   12.91534000      0.165109   -0.75613800    0.30078200
Ge    1.42551000    2.50214000    6.83694000     -0.618341   -0.28248500    0.33025100
Ge    4.64180000   16.09102000   17.13935000      0.346507    2.40769600   -0.69185700
Ge    8.92649000    3.32868000    3.43468000      0.290605   -0.26766200   -0.41469700
Ge   10.58792000    1.82824000   16.41916000     -0.586903    1.52451200   -1.80552200
Ge    8.24957000    9.10473000    5.30177000      0.030050    0.78151000   -0.24107800
Ge    9.93782000    8.54612000   14.25862000     -0.710585    0.41974000    0.67862300
Ge   11.34141000   14.01726000    5.49350000      0.024340   -0.29430500   -0.01144600
Ge   10.58787000   12.42758000   14.38136000      0.035400   -0.07389300   -1.03940200
Ge    6.06173000   21.20276000    2.67840000      0.512654   -0.05866600    0.14030700
Ge    9.44097000   19.00427000   17.62951000     -0.710172    0.25265400   -0.19916400
Ge   13.67036000    1.17603000    6.19307000     -1.061124    1.04657300   -0.03880100
Ge   10.41699000    5.36317000   14.59185000     -0.062029   -0.18821000   -0.27662300
Ge   15.36518000    5.96167000    6.53414000     -0.124137   -0.44646900   -0.49806000
Ge   13.62133000    9.68932000   14.74728000     -0.227668    0.65642900   -0.54714500
Ge   14.63704000   13.40260000    4.26061000     -0.075717    0.05739600    0.83984000
Ge   15.61347000   16.87744000   15.44600000      0.402988   -0.75034900   -0.87675000
Ge   10.45748000   17.33048000    3.05184000     -0.087349    0.66912100   -0.14927300
Ge   13.07186000   22.48031000   17.02998000     -0.120528   -1.68788700    0.58284200
Ge   17.57319000    5.75892000    4.37705000     -1.270270   -0.01016500   -1.03435100
Ge   21.40563000    2.42614000   11.78361000     -0.415066   -0.02614200    0.76231900
Ge   19.13828000    8.76343000    7.35644000      0.944240   -0.34615800   -0.14378400
Ge   19.34631000   12.12228000   14.31589000      0.057838   -0.61071200   -0.63396600
Ge   22.70278000   14.88166000    1.06192000     -0.069903   -0.72247900   -0.20938400
Ge   18.01815000   14.67103000   12.37000000      1.290131    1.26029000    0.31460100
Ge   20.23197000   20.59562000    5.57705000      0.726370   -0.68316100    0.27320900
Ge    0.00076000   20.99530000   15.50583000     -0.056159   -0.57434700   -0.01280500
Ge    5.59245000    2.96744000    2.97166000     -1.398660    0.48693900    0.94952100
Ge    6.23701000    4.83414000   16.44832000      0.297902   -0.05946300   -0.13490300
Ge    3.84568000    9.74430000    4.45139000      0.051088   -0.00708500    0.37280800
Ge    4.57944000    8.09065000   12.31141000     -0.110364   -0.20453400   -0.49340900
Ge    5.77474000   14.54526000   19.29536000      0.328734   -0.16168600    1.32443200
Ge    3.24234000   14.94382000   13.21043000      0.171223    0.39826200    0.11250800
Ge    4.43389000   22.21429000    5.50401000     -0.248343    0.54001200   -0.01046900
Ge    7.40057000   19.55667000   12.56921000      0.009296    0.77923200   -0.56356300
Ge   11.74231000    4.55472000    5.57324000      0.354939    0.02111300    0.52333600
Ge    7.29283000    1.36444000   13.44837000      1.615712    0.05557700    1.73484700
Ge   12.08837000   10.72252000    2.54663000      0.155221   -0.08574500    0.42554500
Ge   13.22043000    7.25501000   14.09320000      0.359767   -0.37837400   -0.32650300
Ge   10.38438000   14.14468000    1.52791000     -0.442374   -0.54531700    0.43191200
Ge    9.27673000   16.05214000   11.78416000     -0.864125    0.37806500   -0.21034400
Ge   12.13182000   22.47370000    1.51531000     -3.301839   -0.73400800   -1.45413300
Ge   12.27026000   18.48575000   11.83109000     -0.783870    1.31084400   -1.15024100
Ge   21.44185000    0.44804000   17.67173000     -0.694685   -0.58411200   -0.46696000
Ge   14.72149000    4.68699000   11.37401000     -0.483557    0.01839100    0.77950200
Ge   17.34369000    8.10564000    1.94226000      0.039433    0.14957000    0.19587300
Ge   16.51044000    7.65911000    9.96340000     -0.487216   -0.14634800    0.50193900
Ge   17.93026000   11.47767000    3.68547000      0.040425   -0.19141100    0.24982700
Ge   19.57979000   14.85461000    7.39868000     -1.702702    0.01462300    0.24645100
Ge   18.21537000   18.64506000    2.47799000     -0.483510   -0.27488700    0.33329100
Ge   16.56728000   20.20929000   12.41311000     -0.231963    0.78167400   -0.08850900
Ge    0.56203000    0.43626000    2.17336000      0.753417    0.05911700   -0.44561200
Ge    0.75548000    0.62609000   10.93712000     -0.174679    0.12380000   -0.32179700
Ge   20.02923000    5.84370000    4.50293000      0.608063    1.11028900    0.25749000
Ge   22.52670000   10.14843000   13.41640000     -0.287513   -0.59472600    0.22839500
Ge   21.50865000   12.97453000    3.10678000     -0.026800   -0.33674500    0.72044400
Ge   22.35975000   18.23791000   10.21098000      0.212316   -0.89923300    0.10202400
Ge    2.79862000   20.44503000    3.71845000      0.141067   -0.29010500   -1.38925400
Ge   19.96444000   17.33458000   12.22453000      0.551005    0.10513900    0.04504800
Se    0.51263000    0.99271000   18.74147000      0.182472    0.59127300    0.41435200
Se    1.56835000    3.14040000   10.51836000     -0.277190    0.18311800   -0.77361600
Se   22.72198000    6.13949000    2.41619000     -0.576400    0.35335800   -0.42972100
Se   22.87229000    7.72405000   12.65628000     -0.599115    0.39967500   -0.43257800
Se    3.13460000   11.09734000    0.11717000      0.042369   -0.05754200    0.35114300
Se    2.03448000   13.26327000    9.59474000     -0.624699   -0.22279900    0.10173800
Se    2.50678000   17.82276000    3.81698000      0.162372    0.66741100   -0.02522000
Se    0.95261000   20.13813000    9.79901000      0.499938    0.44535500   -0.08035000
Se    7.32691000    2.12280000    1.64529000      1.159743   -0.36818300   -0.29651300
Se    6.18848000    1.63124000   11.52489000     -1.403093    0.01665300   -2.29633600
Se    7.91125000    5.71791000    1.79254000     -0.046939    0.74027500    0.39443400
Se   10.61253000    7.69995000   12.16340000      0.001022   -0.25975700   -0.66560900
Se    7.84858000   11.73745000    0.75719000     -0.061541   -0.35020800    0.18378100
Se    5.82651000   15.02460000   12.99487000     -0.210585   -0.26336200   -0.13454500
Se    5.21122000   19.06965000    1.56935000     -0.658297    1.22120900   -0.13977600
Se    9.60283000   18.71160000   10.35417000      0.086394   -0.61960900    1.00377400
Se   13.92510000    3.16994000    0.93876000      0.559900    0.80157900   -0.28120200
Se   12.82398000    0.68693000   10.01879000      0.141929   -1.17877800   -0.03758400
Se    9.48160000    7.50751000   19.23947000     -0.338598   -0.22749800    0.76171300
Se    9.89664000    9.59629000    8.77675000     -0.899048    0.09825900    0.47679400
Se   12.02564000   12.44800000    0.50563000      0.614073    0.21337900    0.91199700
Se   13.53036000   11.59666000   10.69451000     -0.289474    0.16491600    0.15536500
Se   16.09882000   14.60084000    0.90574000     -0.090968    0.31270100    0.31139200
Se   11.76116000   18.12880000    8.38352000     -0.498656   -0.26906400   -0.23147100
Se   16.83516000    3.65408000    3.02713000      0.458625    0.41483900   -1.12886500
Se   14.52154000    1.94050000   10.91005000      0.969810    0.34656900   -0.10537300
Se   17.80382000    6.54687000   17.80901000     -0.421536   -0.50903000   -0.19642200
Se   21.04972000    7.90386000   10.80115000      0.888292   -0.57832300    0.30704400
Se   18.65449000   10.50427000    0.67320000     -0.933016   -0.47650500    0.27297300
Se   17.55113000   16.01260000    6.56795000      0.847623   -0.37985600   -0.36247400
Se   19.81996000   16.45372000    1.01338000     -0.062896   -0.21178500    0.49754000
Se   18.01273000   18.33751000   10.89583000     -0.432997    0.35187700   -0.09902100
Se    4.05359000    5.04556000    2.24242000     -0.773626   -0.55706400   -0.24775700
Se    2.92999000    6.40352000   11.34667000      0.847317   -0.05147700    0.63313600
Se    4.81795000    9.95826000    2.14651000      0.035988    0.96743600   -0.15382800
Se    5.35301000   13.14764000   11.49523000      0.296453   -0.16806000    0.27293800
Se    4.18778000   14.58324000    3.79291000      0.339448   -0.03582200   -0.56324800
Se    2.81725000   16.73788000   10.86567000      0.125872    0.12513200    0.13843900
Se    4.55130000    0.00071000   18.44299000     -0.605488   -0.59374100   -0.01909100
Se    6.56291000   21.31136000   10.38581000      0.106395   -1.43728200    0.08882500
Se   10.73828000    6.72417000    4.01954000     -0.189431   -0.34468700   -0.46171000
Se    7.64218000    2.84287000    9.60963000      0.075325    0.49129600    1.41597500
Se   10.45938000   11.07773000   17.19944000     -0.471441   -0.05072600   -0.62624300
Se    7.49132000   10.38696000    8.99597000      0.745546    0.21939500    0.00710500
Se    9.77775000   17.38554000    0.34957000      1.885428   -0.33577200   -0.41371100
Se   11.69668000   16.00947000   11.42461000      0.760582   -0.64367600   -0.30193900
Se   14.01462000    0.03096000    2.47067000      2.397027    0.76341200    1.45151200
Se   12.05615000   20.99999000   12.39425000      0.981242   -0.21599800   -0.69116000
Se   13.12635000    6.85397000    1.26040000      0.383158   -0.00354100   -0.22478700
Se   18.30468000    7.73274000   11.90150000      0.053912   -0.44635500   -0.33366800
Se   15.21804000    8.52607000    0.22259000      0.368913   -0.38553900    0.19200000
Se   15.13453000    9.93527000   12.76964000      0.377763    0.46093600    0.61070700
Se   18.96921000   13.99275000    4.03883000      0.369427   -0.24925900   -0.51885300
Se   14.44549000   14.29337000    9.62853000     -0.073362   -1.06416700    0.22143300
Se   16.99112000    0.60622000    0.93066000     -0.055209   -1.98691800    1.58427800
Se   14.14919000   19.18148000    9.77480000     -0.164560    0.40715700    0.76191600
Se   21.14738000    0.94746000    2.20621000     -0.173201   -0.48418400   -0.67074700
Se   22.72946000    4.60727000   11.30020000     -0.072292    0.94747200    0.28088100
Se   20.17105000    6.50566000    2.12741000      0.638938   -0.36211600   -0.40758800
Se   21.83000000   10.86349000   10.95285000      0.575695    0.35629800    0.14169100
Se   21.19329000   12.78945000    0.41985000      0.069507    0.89142200    0.00371600
Se   22.39415000   15.69775000   11.55766000      0.606861    1.11144800   -0.01108700
Se    0.95112000   20.94008000    1.94597000      1.078722   -0.27158500   -0.28521400
Se   20.05906000   20.80105000   14.19067000      0.613949   -0.12176800    0.02191700
Se    4.49797000    4.80585000    8.19440000     -0.210017    0.39881000    0.74211600
Se    0.16520000    5.85656000   16.49582000      0.513075   -0.58434600    0.50249200
Se    4.00793000   10.98348000    9.10834000     -0.192580   -0.81149100   -0.01015000
Se    3.64007000    8.48182000   17.54319000     -0.663599    0.71474100    0.97153000
Se    4.43678000   18.26875000    7.25719000     -1.076619   -0.23088400    0.82020600
Se   22.69195000   18.09709000   15.40251000      0.851222    0.60143600   -0.27182200
Se    4.08457000   22.36003000   12.41689000      0.551984   -0.36283700   -0.28424000
Se    8.76102000    0.34291000   16.70269000     -0.471885   -1.07240200    0.13781800
Se    6.63280000    4.96711000    4.40742000      0.133434   -0.51591400   -0.12293600
Se    6.25112000    5.17892000   18.99357000     -0.241936   -0.86626200   -0.88371800
Se    6.23742000   10.79965000    5.21172000      0.070490   -0.12651100   -0.28075300
Se    3.55064000    7.27778000   15.62189000      0.641943   -1.34198000   -0.85899300
Se    6.33889000   16.77723000    9.08613000      0.132933    0.30744700    0.51879300
Se    7.16600000   16.45811000   18.33538000     -0.995570   -0.60216500   -0.27087800
Se    8.03359000   18.50585000    5.99493000     -0.365933    0.40801200    0.65758100
Se    7.47042000   21.95956000    0.59703000     -0.308896    0.05233000    0.20440600
Se   15.66616000    1.19016000    7.80905000      0.216135    0.29933300    0.45560300
Se   12.64005000    4.25357000   15.49586000      0.432083   -0.03033100    0.15022900
Se   13.30341000    8.18034000   10.58714000      0.419781   -0.36494700   -0.40813900
Se   13.90480000   11.26266000   16.82749000     -0.251466    0.31361800   -0.49123300
Se   13.42238000   15.41416000    6.32763000      0.702027    0.16633700   -0.23607500
Se   14.03835000   15.97930000   17.52955000      0.382330    0.17523500    0.52380900
Se   12.23493000   22.01014000    6.70669000      1.710690   -0.55892200    0.42446600
Se   18.31201000   20.64748000   17.59027000      0.187933   -0.07969600    0.71107500
Se   19.24315000    2.93829000    9.37598000      0.511620    0.29143300   -0.49692000
Se   19.94846000    2.58773000   17.50744000      0.175377    0.36738900    1.15680700
Se   18.20724000   10.26167000    9.15059000     -0.160448   -0.29133600   -0.07273900
Se   17.28643000   10.90757000   15.95081000      0.441172    1.39073700    0.77037600
Se   15.62732000   16.21577000    9.51917000     -0.285417    0.58578100   -0.13098600
Se   18.15931000   15.21911000   15.13483000     -0.810700    0.15766100    0.44883900
Se   18.53278000   18.50067000    8.57508000      0.094551    0.44702700   -0.12663000
Se   20.73820000   20.24802000    1.52572000      0.135301   -1.26271600    0.85082000
Se    4.98233000    0.35479000    7.67974000     -0.409206    0.44097800    0.15723600
Se    0.26177000    3.46880000   17.49796000      0.575472    0.61266500   -0.36318600
Se    6.72519000    7.08407000   10.36854000     -0.115596   -0.27223900    0.45958900
Se    2.29879000    8.05875000    0.44385000      0.050797   -0.69439200   -0.20884400
Se    4.05391000   14.69782000    7.78231000     -0.467332    0.83500700    0.01464700
Se    5.05027000   13.93308000   16.69210000      1.232155   -1.40241000    0.27044500
Se    3.15789000   21.13772000    9.98602000      0.281183   -1.05028500   -0.01996700
Se    0.05462000   16.50866000   18.77135000     -0.269078    1.01863900    0.12815700
Se    9.06104000    0.60170000    8.81069000     -0.050855   -0.94630400   -0.08284300
Se   10.71864000    3.59848000    1.46726000      0.313309    0.52205900    0.11416200
Se   12.00382000    4.38980000   10.52035000     -0.370341    0.46998200    0.65481600
Se    6.21668000    8.09165000   18.85625000      0.622105    0.67048900    0.17192000
Se   10.21827000   13.88187000    8.40906000      0.533028   -0.96954200   -1.10474400
Se    8.19298000   11.94521000   17.69288000      0.042532   -0.31273800   -0.18876100
Se    9.83106000   21.22657000    8.44979000      1.358401    0.88555100   -0.11508200
Se   11.95956000   15.14781000   16.87365000     -0.786590    1.18151700   -0.72847600
Se   17.11931000   20.59094000    7.63325000      0.500863    0.12887800    0.57717400
Se   15.41113000    4.03453000   18.65686000     -0.708349    0.21144100    0.18354500
Se   15.11135000    4.89748000    8.91895000      0.664399    0.42453100   -0.17910200
Se   11.78619000    8.72575000    0.57144000      0.842461    0.61577700   -0.53191800
Se   16.25344000   12.10452000    9.48651000     -0.414817    1.64137600    1.53710700
Se   16.37804000   13.28048000   18.28858000     -0.123875   -0.21995600   -0.44582700
Se   15.40436000   18.49588000    6.59495000      0.868595    0.89583200   -1.45100100
Se   16.34746000   19.14165000    0.57237000     -0.468955    0.24094800    0.84951200
Se   21.92610000   22.72958000    9.16776000      0.233670    0.01674000   -0.31506000
Se   22.69748000    1.26815000   15.02746000      0.134804   -1.32269100    1.36318300
Se   20.78413000    6.61375000    7.99496000     -0.396304   -0.17642000   -0.26182500
Se   20.62949000    8.41542000   18.04389000      2.312211   -0.30711300    0.16453100
Se   21.52302000    9.81740000    7.36371000     -0.812639   -0.27077600    0.23472200
Se   22.00533000   10.42571000   17.03406000      0.061751   -0.04282900    0.60746900
Se   21.26116000   16.15866000    6.45719000     -0.024166    0.34297800   -0.55008200
Se   17.97202000   17.30543000   19.05853000      0.084641   -0.45414000   -0.76158800
Se    2.55579000    1.18579000    8.77360000     -0.270139    0.10617700   -0.18722900
Se    4.14445000    3.14887000   15.89943000      0.208284    0.11242100    0.69334300
Se    1.19047000    8.24130000    7.26667000      0.058242   -0.54015900   -0.23888900
Se    0.73605000    8.74384000   15.43306000     -0.197694    0.53999900   -0.15993200
Se    1.54582000   16.06545000    7.32282000      0.328918    0.32555700   -0.81170600
Se    0.80387000   12.64968000   16.86150000      0.406989    0.35787300   -0.15072400
Se    0.71557000   18.40721000    6.04143000      0.468742    0.00763500   -1.26795500
Se    2.96802000   20.35719000   16.15250000     -0.192397   -1.22500500   -0.64447800
Se    7.06236000    1.35723000    4.77324000      0.765802    0.07351100   -0.16828700
Se   11.91800000    1.23803000   18.19422000      0.724411    0.50391900    1.69681300
Se    7.87004000    7.00954000    6.30214000     -0.534034   -0.80239600    1.20203100
Se    7.83094000    7.01766000   14.67999000     -0.110844    0.62524800    0.24044200
Se    7.31528000   13.85404000    6.13263000     -0.461782   -0.13633400   -0.14090700
Se    7.77714000   17.23467000   15.27542000      1.404615    0.16665600   -0.66252700
Se    5.37847000   19.96817000    6.08615000      0.588946    0.37368600   -0.33566200
Se    8.87437000   15.12098000   15.33000000      0.211361   -1.70520500    0.44850900
Se   14.98451000   21.38368000    5.88083000      0.521423   -0.59141900    0.06633400
Se   14.92700000    1.67234000   16.73454000      0.884815    0.02172300   -0.69053300
Se   12.29285000    6.71509000    7.08477000     -0.393644   -0.04709300   -0.85229500
Se   11.48077000    7.26238000   15.88570000     -0.417230    0.46381300    0.55224700
Se   13.07776000   11.40279000    4.96624000      0.503392    0.08804700   -0.58267900
Se   14.50863000   14.19566000   13.34779000     -0.472078   -0.39314000   -0.27868400
Se    9.64618000   15.85405000    5.30250000     -0.042331   -1.62105500   -1.65667300
Se   13.34943000   20.74442000    0.37038000      0.739907   -0.98783300   -0.99586800
Se   20.62697000    1.86843000    5.09977000      1.173131   -0.41974400    1.77819100
Se   18.55245000   22.61123000   16.39612000      0.034968    0.46356500   -0.19304400
Se   17.75463000    4.64867000    6.43822000     -0.973985    0.03261500    0.98886700
Se   18.30486000    6.86237000   15.21431000     -1.853412    0.20908000    0.64178400
Se   20.23000000    9.83246000    3.61956000      0.856198   -0.14121800    0.06772100
Se   16.61653000   12.84356000   12.58591000     -0.642344   -0.60359000    0.40069300
Se   17.74397000   20.58000000    4.37587000      0.419933   -0.52435800   -0.21881900
Se   17.35576000   22.45433000   14.02094000      0.172526    0.45163400   -0.27158900
Se    3.08512000    6.75431000    6.50948000      0.067081    0.65685800    1.11000800
Se    3.76044000    4.54256000   12.68567000     -0.007602    0.56096000   -0.02106700
Se    1.84944000    7.64929000    3.19949000     -0.179313    0.37010000   -0.15761000
Se    4.58347000   11.60666000   15.10454000      0.199669   -1.73454800   -0.17280900
Se    4.80190000   12.73961000    6.77709000      0.942297   -0.77734900   -0.35748700
Se    3.69986000   17.52134000   18.63217000     -0.646806    0.39919600    0.51345700
Se    1.81640000   21.57974000    5.69843000      0.398351   -0.03902400    1.00911200
Se    5.29924000    0.26295000   14.49370000     -1.152528   -0.73023100    0.72770400
Se   11.13702000    2.48840000    6.94238000     -0.197209    0.13313800    0.08456400
Se    8.93085000    4.14403000   16.19153000      0.146405   -0.75132200    0.48322200
Se   10.16065000    9.98826000    6.47979000      0.591748    0.54998200   -0.05101200
Se    8.34232000   11.04352000   14.54929000     -0.117103   -0.46818600    0.90691600
Se    8.69096000   15.56543000    9.09415000     -0.105588    0.14205800    0.00895500
Se   11.05683000   18.09114000   15.99574000      0.569063   -0.38829200   -0.57238300
Se    8.45535000   19.12986000    3.50632000      0.140778    0.41031000   -0.18963400
Se   10.57632000   21.26914000   16.44111000      0.266961    0.41320400   -0.16934800
Se   14.11885000    3.78668000    5.48665000      0.469374    0.65826900   -0.07077200
Se   18.79846000    3.10783000   14.82321000     -0.556256    0.01450100    0.54732300
Se   14.66086000    9.04632000    7.36613000      0.207811   -0.08139700   -0.02153200
Se   16.99754000    9.33258000   14.36192000     -0.466716   -1.09151000   -1.16811400
Se   16.72093000   12.35565000    5.85188000     -0.185438    0.05503700    0.45961200
Se   16.13883000   19.22561000   15.74615000     -0.564106    0.91773600    0.09508700
Se   16.11540000    0.50578000    5.58250000      0.179035   -0.01193000   -0.30592900
Se   18.85166000    3.25886000   12.50885000      0.691893    0.29176900   -1.33179400
Se    0.33814000    4.29193000    8.30079000      0.127060   -0.41171900   -0.61167900
Se   22.85614000    3.27599000   13.95598000     -0.440810    0.82804500   -1.00336800
Se   20.13108000   12.42175000    7.31327000      0.508275    0.09368800   -0.70606100
Se   20.55252000   13.21101000   16.12140000      0.628927    0.19747300    0.43572900
Se   22.21128000   12.48568000    5.67659000     -0.237181   -0.06367400    0.60231700
Se   18.96819000   18.68341000   14.20972000     -0.562683   -0.93613200    0.43743600
Se   22.02434000   19.03855000    7.54753000     -1.104106    0.43734600    1.52956800
Se   22.42543000   20.79948000   17.93711000      0.036817   -0.05410800   -0.30021500
Se    3.16294000    3.06237000    5.25132000      0.653848    0.25233400   -0.00288000
Se    6.95934000    1.78781000   17.77645000      0.026785    0.43066200   -0.33983400
Se    2.58874000    4.36644000    0.42809000      0.123207   -0.98249200    0.03997500
Se    2.78898000    9.62530000   10.94238000      0.308716    0.06727400   -0.81019300
Se    1.36747000   11.67960000    2.96738000     -1.298168   -0.25901300   -0.71042500
Se    2.97514000   16.87142000   14.86394000     -0.890336   -0.11099200   -0.81640600
Se    4.02353000   15.96740000    1.59128000      0.394880   -0.47232700    0.09892400
Se    5.10479000   19.15919000   13.63790000     -0.131893    0.01276700   -0.44283000
Se   10.46640000    0.71238000    3.37771000      0.270409    0.47877000    0.12209100
Se   11.22630000    0.75644000   13.90973000     -0.523900    0.35226300   -0.31794900
Se   10.07509000    8.98263000    3.44138000     -0.140425    0.40598400   -0.09363700
Se    7.54787000    9.11151000   16.65450000     -0.204591   -0.97601900   -0.21824500
Se    9.65029000   12.46717000    3.74297000      0.133259    0.29164700   -0.55058800
Se    9.39931000   12.95907000   11.85258000      0.646171    0.12561500    0.38424800
Se    9.33029000   20.68532000    1.15834000      0.038238   -0.13067000   -0.12376600
Se    9.95683000   18.09780000   13.68792000      0.396497    0.84689500    0.31313100
Se   18.98848000   22.33149000    8.25977000      0.198716   -0.75971900   -0.16172800
Se   14.61698000    2.67643000   13.26695000     -0.221061    0.19467200    0.12221500
Se   15.44767000    7.16494000    3.88996000      0.711969   -0.60037500    0.01517600
Se   14.94769000    5.81763000   15.29285000     -0.871871   -0.31794000    0.43535400
Se   15.79286000   12.23467000    2.33097000     -0.765658   -0.65484800   -0.83457600
Se   16.65370000   16.85749000   12.84290000     -0.151235   -0.47711300   -0.11258000
Se   16.29871000   16.78388000    2.96290000     -0.228343    0.24738500    0.86773600
Se   14.18551000   20.05949000   14.35233000      0.230090   -0.28496500    0.10121000
Se    0.16701000   22.76283000    4.63241000     -1.075460    0.47127200    0.51880200
Se   21.40176000   22.95724000   13.53585000      0.433544    0.93143400   -0.66080500
Se   19.81045000    3.51003000    3.81365000     -0.709476    0.06333000   -1.59851200
Se   20.20903000    9.68743000   14.10231000      0.218379    0.96179000    0.10390200
Se    2.39992000   11.84665000    5.76898000      0.026241    0.01947200   -0.31380800
Se   21.52655000   15.59413000   15.44992000      0.612543   -1.62636800   -0.86013600
Se   22.22041000   19.22290000    4.14260000     -0.525928    0.01284300    0.72533000
Se   21.48338000   19.88293000   12.23944000     -0.327082   -0.30083200   -0.22342000
Se   22.62084000    5.10895000    5.46316000      0.870364   -0.55867400    0.28881600
Se   20.45639000    6.37793000   15.00721000      1.434601   -0.91184200    0.57785600
Se   22.74797000    9.61785000    2.17402000      0.629529    1.43771300    0.34879200
Se    1.25318000   12.00983000   13.76084000     -0.898642   -0.57729500   -1.49115600
Se    1.80833000   13.81180000    0.99141000      0.287430   -0.75308900    0.65090100
Se    1.86669000   22.37622000   12.98698000     -0.599241    0.10104700    0.57041500
Se    4.41601000    0.26251000    3.11978000     -0.282181   -0.52031600   -0.06263800
Se    5.76589000   18.18692000   15.72837000     -1.656590    1.01355100    0.64775800
Se    8.81896000    5.23425000    7.89562000     -0.001589   -0.23567800    0.08083500
Se    7.76262000    4.76199000   12.74973000      0.401000    0.54148900   -0.26346000
Se    5.21035000    7.07651000    4.22738000      0.147087    0.18264900    0.89553600
Se    7.66312000   11.12403000   12.37534000      0.046190    0.28962000   -0.76862700
Se    7.89195000   15.52722000    2.35445000     -0.855435   -0.11512000    0.51013900
Se   11.92672000   14.68910000   13.64211000     -0.082587    0.38759100    0.05810800
Se    7.11335000   22.62591000    6.39504000     -0.489868   -0.15929700   -0.38674400
Se    7.75954000   21.59529000   14.13669000      0.468898   -0.16719700   -0.77558600
Se   12.62852000    1.84156000    3.34833000     -0.203072    0.03684900    0.80940900
Se    9.54099000    1.55205000   12.30477000      0.918536    0.11281600    0.18171900
Se   14.60372000    9.93436000    3.35558000     -0.467755    0.70301200    0.38498800
Se   11.88446000   10.54614000   13.05524000     -0.364575   -0.02598200    1.06694900
Se   12.23245000   15.10078000    3.07189000      0.264030   -0.08787900   -0.10085700
Se   13.57377000   17.69088000   13.58555000      1.105284   -0.27425300    1.19329300
Se   11.69712000   19.62345000    2.87578000      0.586651   -0.79401200    0.37495100
Se   13.96805000   22.93229000   14.81859000      0.045269    0.25954600    0.02708000
Se   18.24110000    4.03869000    1.03267000     -0.917005   -0.01325000    0.63742000
Se   16.19168000    6.52013000   12.61211000     -0.091187   -0.06698100   -0.70075000
Se   18.11432000    9.06873000    4.63416000     -0.020225   -0.21952700   -0.25825600
Se   20.22196000   13.21803000   11.96664000     -0.682381   -0.64247400    1.34621100
Se   22.26551000   15.54214000    3.39272000     -0.827683   -0.15039200   -0.86147600
Se   19.51029000   15.40571000    9.79710000     -0.750723    0.44753700   -0.84110100
Se   19.63774000   21.76452000    3.47433000     -0.421675    0.42701200   -0.68355500
Se   16.89543000   22.45912000   11.29845000     -0.289636   -0.93723100    0.22205600
