384
23.00800000 23.00800000 19.32000000
Ge    5.90033000    4.40978000   10.77619000     -0.068017    0.88675900    0.15967900
Ge    4.74403000    7.41465000    1.81737000     -0.131965    0.72094300   -0.86772500
Ge    1.46683000   10.85463000    7.83845000      0.537208    0.07349600    0.41036100
Ge    5.44798000   10.57763000   18.53073000      0.305640    0.00488200   -0.30891600
Ge    4.75703000   15.12439000   10.29520000     -0.274913    0.66048100   -0.68646300
Ge    7.59844000   17.86902000    1.39436000     -0.571543   -0.34049100    0.24542500
Ge    7.98041000   19.76953000    8.81787000     -1.678056   -0.39089400    0.50675000
Ge    4.80768000    2.83099000   18.60932000     -0.582815    0.11719100   -0.30612900
Ge    9.27877000    6.01988000   10.96866000     -0.919191   -0.46011000    0.19333000
Ge   10.83716000    6.09426000    1.53024000     -1.358469   -0.45843700    0.79651200
Ge   11.76124000   13.66084000   10.27090000      0.200237   -0.52170700    0.57255100
Ge   12.09870000   12.82558000   17.53686000      0.612517   -0.24446700   -0.46622000
Ge    9.69736000   17.12331000    7.13459000      0.607995    0.98171600    2.38563300
Ge   13.55260000   16.03046000    0.88346000      0.324633   -0.19017900   -0.09395700
Ge   10.95795000    2.15287000    9.76359000     -1.250764    0.84333500   -0.47723800
Ge   15.97007000   21.35792000   18.79812000      0.289962    0.46110100   -0.58275500
Ge   19.43073000    5.67942000   10.69475000      0.435786   -0.14407000   -0.00511300
Ge   18.42101000    9.06613000   17.76053000     -0.901927   -0.12932300   -0.05123300
Ge   21.43468000   13.89149000    9.80706000      1.131476   -0.02699300    0.11593100
Ge   16.32837000   10.62580000   18.86617000      0.586633    0.97195700   -0.10596400
Ge   14.06787000   17.27528000    7.94161000     -1.175994   -0.56184600    0.89375400
Ge   18.74795000   14.18101000    1.46992000      0.194767   -0.36034200   -0.30205400
Ge   19.93873000    0.67044000   10.26360000     -0.460966   -0.00871700    0.19138800
Ge   17.13721000    1.77439000   18.31299000      0.732007    1.32051900   -1.69693300
Ge    0.54274000    7.08299000   10.09292000     -0.622458   -0.12435800    0.04552000
Ge   21.88982000    3.04075000    0.31058000     -0.352418   -0.18988700   -0.33391700
Ge    1.14670000   11.61680000   11.11571000     -0.024219    0.62885600    0.59456200
Ge    0.22189000   11.24286000   19.29954000      0.140184    0.02768400   -0.19682400
Ge   22.77592000   14.29918000    7.19768000      0.104476    0.53686200    1.28528500
Ge    0.92503000   15.75812000   16.57705000      0.020283   -0.88203600   -0.58493900
Ge   20.57897000   20.43189000    9.51832000     -0.126188    0.59771800   -0.32652700
Ge    3.53232000   20.97756000    0.36538000     -0.333021   -0.18538800   -0.02658700
Ge    6.26109000    8.44999000    8.31999000     -0.183562   -0.46990400   -0.07685400
Ge    0.78057000    5.90778000   19.18149000     -0.118791    0.83637000    0.16584800
Ge   21.82626000    7.84291000    5.78655000      0.177068    0.09262200    0.27610000
Ge    3.06505000   13.39233000   15.56431000     -1.194619   -0.54034100   -0.23266500
Ge    5.89344000   16.49548000    3.87804000     -0.241565   -0.30648600   -1.04678000
Ge    1.73880000   19.47174000   18.07888000     -0.098568    0.37339400    0.63037000
Ge    4.52557000   18.83391000   10.13741000     -0.052106    0.45820800   -0.12530600
Ge    3.03988000   22.68212000   16.01906000      0.341166    2.20705000    0.36336600
Ge    8.14287000    2.82191000    7.32587000      0.403383    0.29628000   -1.70190400
Ge    8.39707000    3.64508000   19.14954000     -0.177367   -0.08270500   -0.20174600
Ge    7.17331000   12.71942000    3.54691000     -0.048883    0.45915200    0.40173200
Ge    7.89415000    8.99042000    1.68409000     -0.187639   -0.47138200   -0.84554500
Ge    6.10408000   16.20612000    6.47831000     -0.188389   -0.16283200    0.74842500
Ge    8.90515000   14.50147000   17.77064000      0.759550    0.99650300    0.37681500
Ge   10.09085000   22.56272000    6.17011000     -1.127686    0.92296800   -0.63027500
Ge   10.28998000   21.33389000   13.84492000     -0.980470    0.23375600    1.35147900
Ge   12.98814000    6.08732000    9.20165000      0.376684    0.43413600    0.36185300
Ge   14.11663000    6.50605000   17.88576000      0.285931   -0.39402900   -0.16217000
Ge   12.79940000   10.06298000    8.94151000     -0.472183   -0.72834200   -0.78971800
Ge   15.82630000   13.14953000   15.24551000      0.184834    0.43080300    0.00619100
Ge   14.14871000   17.47475000    4.70810000     -0.051502   -0.66699600   -0.72737100
Ge   13.69610000   18.52658000    1.77805000     -0.005896    0.95035800   -0.02646000
Ge   14.99592000   21.63899000    8.85064000      0.282759   -0.08727000    0.34992200
Ge   16.56353000    1.90457000   14.55283000      0.208851   -0.93707200    0.80595400
Ge   20.74445000    3.89710000    7.34462000     -0.290336    0.13017700    0.51351000
Ge   20.24527000    5.57548000   17.69701000      0.574530    0.29448400   -0.62430500
Ge   16.20032000   10.76328000    7.75457000     -0.110634   -0.89364300   -2.03830100
Ge   19.40498000   15.75528000   17.45440000     -0.270525   -0.39079800   -0.21827100
Ge   19.13888000   16.40630000    4.51881000     -0.606698    0.48360200    0.40694000
Ge   20.45973000   17.69568000   16.03848000     -1.297766    0.59320900    0.66795900
Ge    0.15657000    2.46227000    4.31466000     -0.348573   -0.00208100    0.85206100
Ge   19.89697000   22.15130000    0.52497000     -0.477124    1.96055200   -1.63786900
Ge    5.33736000    3.10452000    6.79238000      0.085760   -0.11928500   -0.21665900
Ge    2.40744000    4.78363000   15.11301000     -0.195696    0.13758100   -0.52775700
Ge    2.05754000    5.62363000    4.71099000     -0.219087   -0.80103600   -0.70163900
Ge    2.84647000    9.39956000   14.30378000      0.122700    0.98989900   -0.15634800
Ge    1.65859000   15.66023000    4.34703000      0.779832   -0.73668800    0.78182500
Ge    1.40026000   18.01616000   12.92198000      0.303234   -0.68335200    0.25124500
Ge    1.43236000    2.53072000    6.78107000     -1.292895   -0.63774300    1.02821300
Ge    4.62014000   16.18100000   17.11907000      0.853817    0.95568700   -1.54352000
Ge    8.90121000    3.35355000    3.46137000      0.352191   -0.40404600   -0.47463100
Ge   10.55157000    1.79031000   16.33871000     -0.309631    1.26284900   -0.73478300
Ge    8.25424000    9.16286000    5.27773000     -0.238687    0.00220900   -0.05587800
Ge   10.00071000    8.59739000   14.24730000     -0.775126    0.46782900    0.96274100
Ge   11.35631000   13.95633000    5.49860000     -0.017399   -0.09263400    0.27579700
Ge   10.55777000   12.45086000   14.37543000     -0.015330   -0.02681100   -1.08454700
Ge    6.13992000   21.20078000    2.73242000      0.525710    0.08218400   -0.09504000
Ge    9.37997000   19.04996000   17.68546000     -0.445137    0.23831600   -0.34522000
Ge   13.63001000    1.21819000    6.15281000     -0.582349    0.61629500    0.17045600
Ge   10.38803000    5.32608000   14.54933000      0.126151    0.07294000   -0.55505200
Ge   15.31245000    5.90950000    6.52683000      0.027992   -0.21609200   -0.27476900
Ge   13.64645000    9.75265000   14.74688000     -0.460883    0.09224700   -0.91868200
Ge   14.62496000   13.28420000    4.28155000      0.005716    0.93284700    1.21460600
Ge   15.58855000   16.87652000   15.42461000      0.390148   -0.65394700   -0.82739800
Ge   10.46842000   17.34477000    3.05040000     -0.176529    0.48736500   -0.08580700
Ge   13.12093000   22.45549000   17.02344000     -0.481552   -1.30133200    1.07877500
Ge   17.56463000    5.75153000    4.41800000     -0.919165    0.17092400   -1.43391700
Ge   21.40753000    2.42219000   11.77049000     -0.363834   -0.16631600    0.81019100
Ge   19.14192000    8.77485000    7.33091000      0.843593   -0.33047800   -0.10004200
Ge   19.35604000   12.10247000   14.32779000     -0.071542   -0.22534200   -0.67256700
Ge   22.68180000   14.89471000    1.11122000      0.316263   -0.73465000   -1.04732700
Ge   18.04008000   14.66106000   12.32562000      0.823201    0.99820300    0.48514100
Ge   20.23367000   20.62676000    5.60628000      0.514686   -0.68588600   -0.09919400
Ge    0.02775000   20.99895000   15.49878000     -0.151875   -0.53740800    0.01077100
Ge    5.55674000    2.99037000    2.99701000     -0.880792    0.14016100    0.79494600
Ge    6.20132000    4.80295000   16.46756000      0.377894   -0.17640300   -0.08518300
Ge    3.80785000    9.76003000    4.45881000      0.150503    0.09810900    0.08878200
Ge    4.54189000    8.11472000   12.30815000     -0.141618   -0.28962800   -0.38201900
Ge    5.73429000   14.50488000    0.00105000      0.451513    0.01918300    1.09345800
Ge    3.24063000   14.83124000   13.21330000      0.197733    0.76293200    0.28074800
Ge    4.42744000   22.23051000    5.43563000     -0.122464    0.49259800    0.45050700
Ge    7.34518000   19.56583000   12.57459000      0.240391    0.73747100   -0.78495500
Ge   11.75612000    4.53890000    5.58766000     -0.035560    0.25182700    0.35953500
Ge    7.28648000    1.31867000   13.50047000      1.601406    0.20172400    1.21781400
Ge   12.11191000   10.74746000    2.58917000      0.069581   -0.14764800    0.30763500
Ge   13.23893000    7.24722000   14.13376000      0.251455   -0.00160500   -0.41773500
Ge   10.36863000   14.16072000    1.50266000     -0.370964   -0.43950100    0.41145900
Ge    9.32675000   16.07157000   11.78852000     -1.281242    0.25138800   -0.34399500
Ge   12.06171000   22.41948000    1.47162000     -2.229115   -0.13032900   -0.58675400
Ge   12.21509000   18.47985000   11.82839000     -0.294373    1.12927100   -0.47411700
Ge   21.47739000    0.38857000   17.60788000     -0.659633   -0.49414200   -0.32846300
Ge   14.75663000    4.71483000   11.46257000     -0.440749   -0.07359000    0.15145300
Ge   17.33369000    8.07250000    1.98253000     -0.057791    0.12507300    0.27038300
Ge   16.50127000    7.66172000    9.96795000     -0.628334   -0.09967700    0.26626900
Ge   17.92928000   11.52915000    3.67893000      0.014493   -0.45549100    0.35148300
Ge   19.60608000   14.87046000    7.39503000     -2.729619   -0.63694400    0.50167600
Ge   18.22888000   18.65499000    2.42947000     -0.489476   -0.18200700    0.45287600
Ge   16.60433000   20.27294000   12.50149000     -0.268617    0.50382900   -0.24812200
Ge    0.57525000    0.46277000    2.12655000      0.940431   -0.04022000   -0.23520800
Ge    0.74789000    0.65040000   10.86534000      0.057820   -0.02769400   -0.22361800
Ge   20.07622000    5.79575000    4.49761000      0.365595    1.41728300    0.17291100
Ge   22.50017000   10.22759000   13.36989000     -0.715919   -0.92382500    0.16931200
Ge   21.51056000   12.96345000    3.09117000     -0.026080   -0.52155400    0.74964700
Ge   22.34662000   18.21491000   10.22876000      0.222910   -0.70617300    0.11522800
Ge    2.81868000   20.45449000    3.65404000      0.123755   -0.23300300   -1.03099800
Ge   19.94967000   17.38906000   12.22237000      0.688547    0.05484100    0.05200200
Se    0.49249000    0.99235000   18.76142000      0.256432    0.46836700    0.28707600
Se    1.56432000    3.13699000   10.45561000     -0.453144    0.23544700   -0.65389600
Se   22.72977000    6.10822000    2.39162000     -0.610702    0.35200600   -0.44018900
Se   22.87727000    7.76446000   12.64867000     -0.562635    0.47112700   -0.23382400
Se    3.11168000   11.11059000    0.05787000      0.138921   -0.14385500    0.30579400
Se    2.05681000   13.29782000    9.58002000     -0.679372   -0.42705500    0.26611900
Se    2.53607000   17.78995000    3.80508000      0.208422    0.88334600   -0.08700000
Se    0.90024000   20.17830000    9.79300000      0.869530    0.25784200   -0.02990500
Se    7.34742000    2.10771000    1.69439000      0.971993   -0.14930900   -0.17887900
Se    6.12301000    1.67068000   11.57629000     -1.009758    0.03280900   -1.82485100
Se    7.90390000    5.72840000    1.71495000     -0.111275    0.74227800    0.49510100
Se   10.61662000    7.75018000   12.15932000     -0.054761   -0.46569500   -0.89781700
Se    7.80340000   11.71099000    0.76232000     -0.074210   -0.24987200    0.08990100
Se    5.83471000   15.02496000   13.05322000     -0.386485   -0.28142800   -0.20470200
Se    5.24204000   19.12612000    1.57704000     -0.702539    1.10852000   -0.12819400
Se    9.61731000   18.75435000   10.32886000      0.071583   -0.54679500    0.92636500
Se   13.95829000    3.16127000    0.95542000      0.591971    0.76086000   -0.32297100
Se   12.76405000    0.69607000   10.08826000      0.443338   -1.55596400   -0.02291100
Se    9.43715000    7.53916000   19.18272000     -0.002226   -0.22381000    1.05084500
Se    9.85357000    9.58717000    8.79427000     -0.515848    0.00155000    0.29465100
Se   12.01318000   12.42302000    0.51420000      0.625263    0.11021800    1.09449100
Se   13.49161000   11.54433000   10.69645000     -0.247212    0.59703300    0.33870400
Se   16.07501000   14.53806000    0.90375000      0.020015    0.48524700    0.15208700
Se   11.72039000   18.12449000    8.39315000     -0.105029   -0.31610600   -0.28017400
Se   16.80222000    3.66536000    2.98607000      0.575695    0.42265400   -1.21382200
Se   14.52452000    1.88359000   10.92918000      1.079804    0.43824400   -0.40538700
Se   17.83149000    6.50827000   17.84183000     -0.290672   -0.33338200   -0.41986600
Se   21.05318000    7.88580000   10.77887000      0.815589   -0.41119200    0.27615200
Se   18.60913000   10.50027000    0.66432000     -0.753253   -0.37496800    0.35850700
Se   17.54209000   15.98467000    6.50118000      0.947052   -0.37852300   -0.17696600
Se   19.82615000   16.43343000    0.96473000      0.267518   -0.01413000    0.54492200
Se   18.04464000   18.30907000   10.89946000     -0.640881    0.56899000   -0.08177700
Se    4.09210000    5.03625000    2.27562000     -1.111576   -0.67183600   -0.48122100
Se    2.89227000    6.36888000   11.38629000      0.873357    0.32284500    0.45727000
Se    4.83285000    9.97463000    2.12047000     -0.094261    0.68852900   -0.08855800
Se    5.36338000   13.18016000   11.53082000      0.293006   -0.34455300    0.27023300
Se    4.19513000   14.56763000    3.71423000      0.402293   -0.07183400   -0.33745900
Se    2.82261000   16.76499000   10.91026000      0.151505    0.09816900    0.00052500
Se    4.55471000   22.97767000   18.42142000     -0.591754   -0.46382300   -0.00130100
Se    6.56444000   21.32702000   10.42610000      0.087001   -1.50889700    0.10910600
Se   10.74150000    6.77276000    4.10255000     -0.163554   -0.63177500   -0.69699100
Se    7.59749000    2.87259000    9.63167000      0.140496    0.27688500    1.47014200
Se   10.44923000   11.10814000   17.22590000     -0.597893   -0.53761200   -0.81808800
Se    7.55883000   10.38764000    8.94837000      0.277346    0.31103600    0.11692800
Se    9.74579000   17.41903000    0.35616000      1.866287   -0.25472000   -0.34950600
Se   11.69024000   16.03463000   11.39905000      1.076416   -0.69272500   -0.40532700
Se   14.05108000    0.07453000    2.39852000      0.819358    0.26799700    0.73455000
Se   12.10123000   20.98587000   12.42730000      0.836627   -0.13366800   -0.48335500
Se   13.06426000    6.90018000    1.27740000      1.000404   -0.52784200   -0.11207500
Se   18.28315000    7.72363000   11.86686000      0.174360   -0.27691300   -0.11965600
Se   15.21600000    8.56983000    0.24261000      0.318278   -0.47804900    0.25343700
Se   15.14703000    9.92804000   12.73638000      0.159040    0.55070000    0.55538800
Se   18.98108000   13.96189000    4.03327000      0.466132   -0.15496500   -0.65374500
Se   14.39665000   14.29446000    9.63652000      0.293361   -0.72535300    0.16030400
Se   16.99728000    0.59785000    0.88262000     -0.038397   -1.80688000    1.26875100
Se   14.19677000   19.15854000    9.79728000     -0.243751    0.35504700    0.55517800
Se   21.18168000    0.95078000    2.21324000     -0.327359   -0.47410300   -0.58158900
Se   22.68850000    4.59223000   11.39430000      0.327457    1.00738000   -0.01619100
Se   20.16104000    6.54737000    2.11089000      0.743825   -0.49475400   -0.22835200
Se   21.77908000   10.91086000   10.90440000      0.863059    0.29638600    0.32796000
Se   21.15344000   12.77205000    0.44614000      0.116237    0.91923200   -0.01329000
Se   22.31875000   15.74259000   11.57183000      0.768090    0.97316600   -0.00661300
Se    0.95624000   20.95727000    1.90863000      1.003030   -0.27475100   -0.22751700
Se   20.00764000   20.84456000   14.25140000      0.806125   -0.52538900   -0.32028400
Se    4.49877000    4.79382000    8.21576000     -0.145152    0.27192700    0.57436300
Se    0.14980000    5.78835000   16.47579000      0.459088   -0.39030000    0.44346500
Se    3.98749000   10.94032000    9.10258000     -0.225862   -0.74977300    0.02608200
Se    3.57452000    8.50600000   17.51568000     -0.562475    0.87690600    1.16897300
Se    4.38434000   18.26081000    7.21512000     -0.857961   -0.04153000    0.66916000
Se   22.68615000   18.04508000   15.43342000      1.537820    0.90202600   -0.56652200
Se    4.13858000   22.39014000   12.47137000      0.236225   -0.50526600   -0.49584100
Se    8.70913000    0.32443000   16.75528000      0.027020   -1.06009500    0.00282000
Se    6.61420000    5.03426000    4.40699000      0.127877   -0.67751700   -0.01160600
Se    6.31538000    5.18935000   19.07221000     -0.334030   -0.91034200   -0.87509400
Se    6.21009000   10.81398000    5.20642000      0.104357   -0.31552000   -0.20915800
Se    3.51040000    7.28913000   15.60262000      0.748750   -1.44476100   -0.83771400
Se    6.33395000   16.84456000    9.11467000      0.386257    0.11636200    0.17596600
Se    7.19396000   16.43403000   18.30761000     -1.277329   -0.63732900    0.09005100
Se    8.07264000   18.50631000    5.93972000     -0.549547    0.32259000    0.84453800
Se    7.43853000   21.94892000    0.52439000     -0.108573   -0.12681600    0.40843700
Se   15.73216000    1.20802000    7.76431000     -0.091254    0.34541700    0.67605500
Se   12.63419000    4.28868000   15.47859000      0.516420   -0.11522800    0.15650500
Se   13.33268000    8.24890000   10.56354000      0.468871   -0.90170500   -0.17809200
Se   13.92311000   11.23747000   16.79588000     -0.222423    0.37757900   -0.24570000
Se   13.46478000   15.39945000    6.30748000      0.573781    0.21995900   -0.27925700
Se   14.07735000   16.00183000   17.54754000     -0.145872   -0.05789900    0.16735100
Se   12.21848000   21.91732000    6.78612000      1.598550   -0.29772200    0.24575300
Se   18.39771000   20.61697000   17.58307000     -0.047358    0.30086200    0.52603300
Se   19.18121000    2.93337000    9.38396000      0.631300    0.29897200   -0.44848800
Se   19.99728000    2.55259000   17.53925000      0.008901    0.36637000    1.16124600
Se   18.20202000   10.29571000    9.14173000     -0.064723   -0.30881700   -0.02789400
Se   17.32278000   10.91788000   15.95382000      0.403043    1.34476800    0.53842300
Se   15.63659000   16.25260000    9.50482000     -0.417969   -0.06843400    0.11793800
Se   18.11981000   15.23972000   15.14099000     -0.741532    0.06427200    0.50171200
Se   18.54761000   18.43089000    8.60276000      0.115306    0.41311200   -0.17955100
Se   20.72347000   20.27072000    1.50151000      0.331010   -1.56718000    0.98282300
Se    5.00727000    0.37000000    7.70216000     -0.516713    0.39587400   -0.07971500
Se    0.22875000    3.45011000   17.50472000      0.683536    0.54013900   -0.55450800
Se    6.78074000    7.00601000   10.35864000     -0.158139    0.12618300    0.29444600
Se    2.23720000    8.12356000    0.48692000      0.188635   -0.83923700   -0.15612200
Se    4.04515000   14.67149000    7.73593000     -0.353780    1.13905900    0.42708900
Se    5.11885000   13.97535000   16.70944000      0.611748   -0.85233000    0.17463800
Se    3.17167000   21.12897000   10.05606000      0.012390   -1.16337900   -0.21187200
Se    0.09078000   16.48512000   18.73341000     -0.466060    1.07767000    0.80704100
Se    9.05668000    0.55347000    8.82321000      0.025086   -0.54776900   -0.04396800
Se   10.73211000    3.71609000    1.53772000      0.307714   -0.41324400    0.12844900
Se   12.05749000    4.37137000   10.56767000     -0.634755    0.37861900    0.72531000
Se    6.17684000    8.04744000   18.90399000      0.511682    0.90731100    0.11883000
Se   10.28256000   13.83983000    8.39217000      0.198822   -0.53853600   -1.04171500
Se    8.25063000   12.02640000   17.65216000     -0.298315   -0.75216700   -0.11980000
Se    9.81661000   21.23845000    8.41406000      1.034414    0.52280600    0.11990300
Se   11.94001000   15.16800000   16.87041000     -0.222829    0.65931700   -0.37392900
Se   17.07931000   20.57899000    7.67136000      0.723201    0.21533500    0.33190300
Se   15.40096000    4.05645000   18.67102000     -0.627054    0.19424200    0.16447800
Se   15.09360000    4.84263000    8.89217000      0.579051    0.45474800    0.27873400
Se   11.75128000    8.67498000    0.59958000      0.377953    1.51323700   -0.86788500
Se   16.29296000   12.12628000    9.53054000     -0.380515    1.49696100    1.49164200
Se   16.41177000   13.27183000   18.23051000     -0.089739   -0.03487200   -0.08048300
Se   15.41672000   18.48918000    6.55822000      0.874335    0.93286600   -1.24129200
Se   16.33616000   19.15533000    0.58259000     -0.714347    0.54040600    0.72255500
Se   21.96251000   22.74040000    9.14991000     -0.102338    0.04805100   -0.29822700
Se   22.70753000    1.26256000   15.10882000     -0.037482   -1.15613600    0.76360200
Se   20.76660000    6.62786000    8.02237000     -0.382328   -0.25818000   -0.30655700
Se   20.61628000    8.37522000   18.02734000      1.965901   -0.04979400    0.16222600
Se   21.51029000    9.86082000    7.33599000     -0.826494   -0.49813200    0.28055600
Se   22.00298000   10.44720000   17.06789000      0.090204   -0.17229700    0.50529700
Se   21.19276000   16.16484000    6.48711000      1.012677    0.80474400   -0.99091700
Se   17.95034000   17.37247000   19.06710000      0.136768   -0.54248100   -0.68591900
Se    2.54638000    1.15888000    8.72571000     -0.411018    0.24018800    0.03961000
Se    4.13848000    3.15353000   15.85092000      0.250879    0.10784100    0.72184000
Se    1.19477000    8.22083000    7.22227000     -0.073884   -0.39058700   -0.03366800
Se    0.71333000    8.73503000   15.47774000     -0.190258    0.69169700   -0.17747500
Se    1.52487000   16.06107000    7.30232000      0.135986    0.08283400   -0.79128800
Se    0.79398000   12.68714000   16.86747000      0.420781    0.27540000   -0.06651200
Se    0.73552000   18.38316000    5.98723000      0.321852    0.15618300   -1.12319100
Se    2.92456000   20.39370000   16.11717000     -0.326200   -1.85109600   -0.50492800
Se    7.05711000    1.34963000    4.80425000      0.710354    0.12851300   -0.25933200
Se   11.90626000    1.22920000   18.23364000      0.445590    0.37125700    0.70011300
Se    7.86061000    7.00343000    6.35287000     -0.501677   -0.24619100    0.96803300
Se    7.82882000    7.01634000   14.68997000     -0.075060    0.54137500    0.17796900
Se    7.31905000   13.86373000    6.14854000     -0.419655   -0.15439600   -0.10553200
Se    7.74626000   17.18274000   15.28228000      1.489800    0.29673400   -0.79378700
Se    5.40024000   19.98703000    6.10698000      0.403378    0.20745900   -0.25053200
Se    8.88709000   15.10948000   15.38183000      0.457155   -1.90110300   -0.01022500
Se   14.96901000   21.36553000    5.90224000      0.458772   -0.39047100    0.07287300
Se   14.94865000    1.62673000   16.76030000      0.818031    0.07900800   -0.74856200
Se   12.29424000    6.69840000    7.07980000     -0.395632   -0.07299200   -0.64325700
Se   11.46968000    7.21244000   15.88157000     -0.462756    0.55771900    0.48278800
Se   13.07521000   11.44372000    4.97855000      0.145188   -0.32733100   -0.28220100
Se   14.45179000   14.18848000   13.33628000     -0.392975   -0.42739500   -0.29476900
Se    9.68295000   15.83454000    5.30830000      0.042681   -1.55656700   -1.50065100
Se   13.32215000   20.76192000    0.35068000      0.964822   -1.42253700   -1.10988900
Se   20.66944000    1.81042000    5.09317000      0.895349    0.25915500    1.52904200
Se   18.56765000   22.59343000   16.30398000      0.050512    0.04601000    0.28785800
Se   17.74883000    4.64858000    6.43811000     -0.969430   -0.07697600    1.27906200
Se   18.25500000    6.81590000   15.22606000     -0.536865    0.04581000    0.75840400
Se   20.21360000    9.85320000    3.62077000      0.743995   -0.08081300    0.08499600
Se   16.62884000   12.79264000   12.60387000     -0.354528   -0.10377700    0.45527700
Se   17.72916000   20.52165000    4.35007000      0.988709   -0.23174300   -0.33831700
Se   17.34686000   22.38287000   14.06649000      0.072846    0.73029700   -0.34112400
Se    3.09452000    6.76635000    6.51672000      0.254914    0.78630900    1.26634700
Se    3.77859000    4.53970000   12.63742000      0.044510    0.26708200    0.18203300
Se    1.85664000    7.64155000    3.16620000     -0.045010    0.14277900    0.00096800
Se    4.54551000   11.57948000   15.06265000     -0.141726   -1.35126200   -0.00996600
Se    4.86736000   12.74068000    6.79987000      1.000097   -1.00582600   -0.49195600
Se    3.73686000   17.51103000   18.62763000     -1.037367    0.98103500    1.20784800
Se    1.83101000   21.55476000    5.70277000      0.365639    0.12542100    0.64022400
Se    5.29609000    0.18655000   14.49825000     -1.047082   -0.57120400    1.09611600
Se   11.08843000    2.49293000    6.93782000     -0.055200    0.05322100    0.11970900
Se    8.98647000    4.19467000   16.17880000     -0.194463   -0.99763600    0.77153500
Se   10.13215000   10.00812000    6.49396000      0.877489    0.59012400   -0.00649500
Se    8.27189000   11.05925000   14.54822000      0.064228   -0.44170200    1.53178000
Se    8.69057000   15.57232000    9.07677000      0.069301   -0.08019300   -0.08838800
Se   11.04122000   18.12643000   15.95689000      0.385858   -0.30001500   -0.20259500
Se    8.41615000   19.11200000    3.54883000      0.329532    0.36396000   -0.35838200
Se   10.59362000   21.28762000   16.42829000      0.087151    0.34233000   -0.06684100
Se   14.09154000    3.81563000    5.48445000      0.717749    0.29497600   -0.17538000
Se   18.78210000    3.07600000   14.78942000     -0.422305    0.04348500    1.17346400
Se   14.68881000    8.98761000    7.35191000      0.451410    0.23086800    0.06615200
Se   16.93085000    9.34585000   14.34349000     -0.171169   -1.06082000   -0.76320600
Se   16.70521000   12.31813000    5.91668000     -0.127944    0.28479700    0.09282600
Se   16.07422000   19.23448000   15.73297000     -0.360037    0.83713800    0.31232400
Se   16.14733000    0.48588000    5.59143000     -0.085541   -0.20533300   -0.50756200
Se   18.90364000    3.25478000   12.52609000      0.619460    0.32472900   -1.84575200
Se    0.41010000    4.30853000    8.29743000      0.019857   -0.33063200   -0.47259000
Se   22.87271000    3.28685000   13.94721000     -0.445748    0.42232900   -0.79432700
Se   20.12748000   12.40902000    7.32299000      0.418559    0.27340400   -0.66158600
Se   20.58253000   13.22610000   16.14580000      0.428758    0.14933600    0.30782000
Se   22.20299000   12.46552000    5.69821000     -0.306783   -0.25702100    0.23526600
Se   18.95077000   18.61631000   14.22112000     -0.281066   -0.28086600    0.66857500
Se   22.06533000   19.05791000    7.55154000     -0.943483    0.37588400    1.34704400
Se   22.43152000   20.77159000   17.94629000      0.159939   -0.12000800   -0.35364400
Se    3.13685000    2.98362000    5.29311000      1.410904    0.47599900   -0.66923300
Se    6.91757000    1.82658000   17.72108000      0.292954    0.63580100   -0.46167000
Se    2.62844000    4.35414000    0.43841000      0.108823   -0.82642900    0.01812600
Se    2.77113000    9.63606000   11.00504000      0.360843    0.03415400   -0.92420700
Se    1.31266000   11.67065000    2.95711000     -1.196843   -0.29389600   -0.69693100
Se    2.99510000   16.89832000   14.86564000     -0.895616   -0.37368800   -0.94233800
Se    4.03766000   15.93413000    1.61736000      0.318814   -0.31312000   -0.07401700
Se    5.12368000   19.19712000   13.62674000     -0.507867   -0.01606100   -0.33214100
Se   10.45685000    0.77202000    3.41724000      0.240507    0.43922400    0.07396600
Se   11.24151000    0.78874000   13.94704000     -0.597314    0.15897500   -0.54306800
Se   10.08393000    8.98123000    3.42505000     -0.197688    0.62949200   -0.03815700
Se    7.54067000    9.09590000   16.65760000     -0.145051   -0.91559500   -0.15787000
Se    9.70122000   12.49703000    3.71684000      0.184847    0.21058000   -0.47975000
Se    9.38108000   13.00133000   11.83750000      0.715486    0.07877400    0.45587100
Se    9.31083000   20.67529000    1.12888000     -0.126961    0.08449400   -0.29917200
Se    9.94731000   18.06225000   13.69216000      0.366494    0.96343100    0.37128400
Se   19.03278000   22.31851000    8.22482000      0.002574   -0.77425800   -0.20216800
Se   14.62660000    2.67419000   13.22368000     -0.385916    0.36615000    0.23255000
Se   15.43323000    7.13807000    3.89445000      0.679456   -0.51228200   -0.09122800
Se   14.95361000    5.80762000   15.29632000     -0.687211   -0.40995300    0.60117000
Se   15.75449000   12.27793000    2.35319000     -0.461569   -0.97150200   -1.34748300
Se   16.61196000   16.90171000   12.89717000     -0.156355   -0.65862900   -0.27090300
Se   16.27772000   16.77859000    2.98101000     -0.177051    0.17250300    0.76640200
Se   14.14232000   20.10487000   14.35705000      0.198523   -0.45558300   -0.01094300
Se    0.18047000   22.75973000    4.61536000     -0.805574    0.31531200    0.56348500
Se   21.42318000   22.96620000   13.51903000      0.469194    0.76891800   -0.22788700
Se   19.79687000    3.52179000    3.82891000     -0.538124   -0.83952400   -1.35338100
Se   20.17688000    9.72762000   14.09463000      0.486814    0.71250300    0.03951800
Se    2.39477000   11.83388000    5.73930000      0.159578    0.02524400   -0.26975300
Se   21.56364000   15.54181000   15.44144000      0.259301   -1.61314800   -0.88167800
Se   22.28557000   19.20906000    4.10028000     -0.515625    0.03797300    0.80615400
Se   21.50504000   19.92651000   12.22587000     -0.460854   -0.29210100   -0.01807400
Se   22.61811000    5.13712000    5.48789000      0.866060   -0.61098300    0.30510400
Se   20.53500000    6.38493000   15.06596000     -0.051374   -0.65696700    0.66626600
Se   22.72134000    9.67047000    2.21379000      0.564133    1.38492400    0.19834400
Se    1.19085000   11.98113000   13.76858000     -0.604335   -0.28389200   -1.23657600
Se    1.84394000   13.84493000    1.00391000     -0.026996   -0.62351000    0.65320100
Se    1.89027000   22.42816000   12.97654000     -0.587020    0.18030500    0.57608000
Se    4.41299000    0.23846000    3.06997000     -0.344532   -0.54799500   -0.04735400
Se    5.77069000   18.17684000   15.72145000     -1.711767    1.25327600    0.67407600
Se    8.78741000    5.21929000    7.89371000      0.075927   -0.01022100    0.09429400
Se    7.76291000    4.76882000   12.81246000      0.426411    0.61544500   -0.40361700
Se    5.17779000    7.03460000    4.23746000      0.160179    0.29079600    0.60698200
Se    7.68061000   11.11472000   12.40857000     -0.127283    0.39456800   -1.40246900
Se    7.95231000   15.49977000    2.34094000     -1.009569   -0.00166000    0.55917400
Se   11.94962000   14.68243000   13.62969000     -0.034322    0.30286300    0.25681700
Se    7.08190000   22.62765000    6.44189000     -0.337008   -0.05514900   -0.41138900
Se    7.73110000   21.57740000   14.11456000      0.564413   -0.05825300   -0.55631900
Se   12.65721000    1.82175000    3.34383000     -0.209242    0.12203700    0.74710100
Se    9.52326000    1.56228000   12.31589000      0.938921    0.11616300    0.18198700
Se   14.60333000    9.96687000    3.41352000     -0.387496    0.46805800    0.32674200
Se   11.83362000   10.55945000   13.03830000     -0.229160   -0.01706800    1.28569100
Se   12.29894000   15.13347000    2.99049000      0.032305   -0.02170400   -0.11023700
Se   13.56628000   17.69273000   13.66238000      0.688429   -0.02834400    0.56199300
Se   11.67947000   19.60458000    2.89488000      0.523626   -0.65399700    0.34946100
Se   13.98820000   22.93615000   14.84229000      0.106233    0.29004100   -0.44926200
Se   18.24730000    3.97049000    0.99674000     -1.017723    0.07063600    0.82654800
Se   16.19145000    6.51255000   12.61145000     -0.006483    0.00644100   -0.59393300
Se   18.13770000    9.01535000    4.67679000      0.064251    0.00416800   -0.29223800
Se   20.18777000   13.20532000   11.88113000     -0.529471   -0.76450300    1.42770700
Se   22.33102000   15.56124000    3.36742000     -1.150543   -0.00081900   -0.26613300
Se   19.52685000   15.37178000    9.80360000     -0.971832    0.68808100   -0.97056000
Se   19.71056000   21.82621000    3.45135000     -0.877555   -0.08993600   -0.32829800
Se   16.90057000   22.41747000   11.25615000     -0.325663   -0.75117300    0.19162600
