384
23.00800000 23.00800000 19.32000000
Ge    5.89259000    4.45996000   10.84438000     -0.067465    0.62387900   -0.03057800
Ge    4.57078000    7.36754000    1.67725000     -0.390028    1.32469800    0.00405600
Ge    1.57096000   10.78686000    7.81714000      0.465196    0.08913100    0.33234100
Ge    5.57567000   10.52489000   18.51689000      0.041237   -0.15462900   -0.21247300
Ge    4.82004000   15.23272000   10.33998000     -0.486531    0.31256800   -0.64289100
Ge    7.52988000   17.84558000    1.47541000     -0.012539   -0.72928000   -0.13887500
Ge    7.79045000   19.75443000    8.81263000     -0.536470   -0.09279100    0.42521400
Ge    4.98231000    2.70321000   18.61473000     -2.132479    0.34186000    0.71751300
Ge    9.24841000    6.07614000   10.96700000     -0.406830   -0.63470100    0.44630900
Ge   10.73423000    6.03964000    1.65827000     -0.554408    3.37228900    0.70851600
Ge   11.89832000   13.73449000   10.25861000     -0.238345   -0.71609300    0.14360000
Ge   12.16416000   12.68667000   17.55813000      0.542142    1.34583100   -0.41500500
Ge    9.78930000   17.19975000    7.20214000     -0.287111   -0.80650700    0.38076500
Ge   13.53967000   16.09725000    0.82208000      0.568618   -0.10036000    0.00390700
Ge   10.94962000    2.22068000    9.76650000     -1.156006    0.80479400   -0.47703000
Ge   15.91516000   21.43406000   18.71690000      0.471823   -0.09536400   -0.27397700
Ge   19.50199000    5.78606000   10.76875000      0.414200   -0.77341100   -0.31981900
Ge   18.34254000    9.13589000   17.82432000      0.248855   -0.95522200   -0.15087400
Ge   21.51477000   13.91174000    9.64671000      0.860961   -0.10572400    0.63027700
Ge   16.32164000   10.72547000   18.82046000      0.011687    0.47266300   -0.03364100
Ge   14.12598000   17.20455000    7.96404000     -1.263238    0.65346200   -0.38835500
Ge   18.82620000   14.31150000    1.37105000     -0.521463   -1.37722400    0.06072800
Ge   19.85162000    0.65571000   10.23074000     -0.195210    0.13419300   -0.01982200
Ge   17.12039000    1.77469000   18.09003000      1.149929    0.42870700    0.35583400
Ge    0.51305000    7.14542000   10.20971000     -0.272385   -0.23396000   -0.30607200
Ge   21.94847000    3.00872000    0.32915000     -0.627849   -0.01345300   -0.21928200
Ge    1.18061000   11.65113000   11.15153000     -0.491251    0.78940800   -0.15710400
Ge    0.14322000   11.22856000    0.03594000      0.429836    0.13253500   -0.19868400
Ge   22.72563000   14.20969000    7.17165000      0.191179    1.58135100    1.22490700
Ge    0.87851000   15.88847000   16.52443000      0.419828   -1.19398900   -0.71511800
Ge   20.63396000   20.48549000    9.48345000     -0.059725    0.35202500   -0.35176400
Ge    3.55304000   21.08938000    0.42918000     -0.417736   -0.61901200   -0.17174400
Ge    6.31535000    8.41507000    8.32131000     -0.092743   -0.51641800    0.01766400
Ge    0.83324000    5.87350000   19.16941000      0.078080    0.75473500    0.56458200
Ge   21.81654000    7.87284000    5.79892000      0.222140    0.04915900    0.14281600
Ge    3.01985000   13.44183000   15.67480000      0.068011   -1.02227000    0.05978600
Ge    5.91247000   16.50880000    3.87278000     -0.186521   -0.37830100   -1.20431300
Ge    1.80120000   19.36300000   18.13890000      0.096937    0.77838200    0.31275600
Ge    4.60889000   18.80007000   10.05619000     -0.713605    0.56136500    0.04304100
Ge    3.06107000   22.74874000   15.98846000     -0.009580    1.42300600    0.43311400
Ge    8.15391000    2.84252000    7.37044000      0.136224   -0.19281500   -1.18129400
Ge    8.36293000    3.64164000   19.14069000      0.282414   -0.69470700   -0.08168200
Ge    7.25486000   12.59943000    3.66580000     -0.216212    0.86025600   -0.22642400
Ge    7.95123000    9.12986000    1.57854000     -0.412851   -0.53983900   -0.58517200
Ge    6.03210000   16.10159000    6.40340000     -0.367242    0.15829000    1.20745100
Ge    8.88970000   14.53636000   17.70926000      1.121512    1.08963000    1.88611700
Ge   10.07319000   22.51908000    6.08724000      0.086317    0.57055300   -0.30496700
Ge   10.22712000   21.37057000   13.87035000      0.148986    0.15024600    0.65488500
Ge   12.99651000    6.02188000    9.22667000      0.610632    0.54333300    0.07507200
Ge   14.15487000    6.46795000   17.87710000      0.156350   -0.27578100    0.04867900
Ge   12.85380000   10.02178000    8.90414000     -0.666722   -0.13724000   -1.36425200
Ge   15.77967000   13.18084000   15.21330000      0.490460    0.30930900   -0.06518200
Ge   14.18622000   17.49202000    4.63956000     -0.034832   -0.82134800   -0.77176400
Ge   13.58597000   18.54599000    1.80521000      0.303837    0.91700100   -0.23402400
Ge   15.07802000   21.63070000    8.91684000      0.061826    0.22548300    0.70566000
Ge   16.55718000    1.89886000   14.49383000      0.183047   -1.01327900    0.80594800
Ge   20.83540000    3.98679000    7.48672000     -0.363739   -0.07182300    0.19578800
Ge   20.36982000    5.52463000   17.71877000      0.077900    0.39783000   -0.57470200
Ge   16.15600000   10.76436000    7.78442000     -0.100429   -0.59743700   -0.26094000
Ge   19.36805000   15.83310000   17.44307000     -0.414663   -0.54985100   -0.27906300
Ge   19.10166000   16.38815000    4.41481000     -0.484406    0.29180100    0.45034000
Ge   20.54092000   17.67641000   16.05771000     -1.512486    0.07116400    0.62420600
Ge    0.12222000    2.36546000    4.30434000     -0.220490    0.22249200    0.63305000
Ge   19.92920000   22.27752000    0.50664000     -0.601805    0.88425900   -1.30613000
Ge    5.35966000    3.11442000    6.68126000     -0.042337    0.02728400    0.49090100
Ge    2.44013000    4.82241000   15.03783000     -0.194484    0.07013100   -0.74214700
Ge    2.10423000    5.50856000    4.80487000     -0.136949   -0.41562400   -1.04620600
Ge    2.76370000    9.36900000   14.23304000      0.177923    0.86908800    0.24137000
Ge    1.69745000   15.64819000    4.41110000      0.730474   -0.86367800    0.66787800
Ge    1.43913000   17.91619000   12.94525000      0.254916   -0.43344300    0.15056500
Ge    1.38867000    2.55870000    6.71812000     -1.842144   -1.09535400    1.50976100
Ge    4.61533000   16.38005000   17.00987000      1.010170   -1.04624800   -1.75581300
Ge    8.86445000    3.38627000    3.49766000      0.395781   -0.48790300   -0.35653600
Ge   10.46578000    1.76176000   16.16250000     -0.408209    0.90059500    1.22309300
Ge    8.25426000    9.27237000    5.22843000     -0.204835   -0.79940100    0.18517800
Ge   10.09648000    8.71703000   14.26200000     -0.668947    0.13050700    0.71400900
Ge   11.38531000   13.83398000    5.52239000     -0.115323    0.24902100    0.69648200
Ge   10.49592000   12.49661000   14.32092000     -0.158122    0.05647600   -0.97568900
Ge    6.31638000   21.20415000    2.83289000      0.310295    0.50644600   -0.46170400
Ge    9.24353000   19.15072000   17.78316000     -0.006176    0.14220400   -0.25178700
Ge   13.53123000    1.32273000    6.08122000      0.105796   -0.03221400    0.42680200
Ge   10.33839000    5.25846000   14.43960000      0.305457    0.51032900   -0.86891400
Ge   15.21013000    5.79926000    6.50481000      0.570644    0.48191600    0.28232700
Ge   13.67411000    9.87593000   14.70768000     -0.881014   -0.88789200   -1.22794700
Ge   14.60672000   13.09752000    4.37253000      1.073552    2.58991700    1.19904100
Ge   15.55459000   16.85301000   15.35194000      0.375426   -0.08220900   -0.26587200
Ge   10.48210000   17.38928000    3.04400000     -0.393752   -0.16579100   -0.13126400
Ge   13.19724000   22.35730000   17.05504000     -0.882872   -0.63250900    1.23419700
Ge   17.51884000    5.74400000    4.44155000     -0.001833    0.07308200   -1.30713900
Ge   21.39758000    2.40493000   11.77641000     -0.150538   -0.48769000    0.76460300
Ge   19.18005000    8.78575000    7.27859000      0.421573   -0.16705300    0.11360800
Ge   19.37200000   12.06044000   14.32695000     -0.297133    0.90341800   -0.45589800
Ge   22.65633000   14.89026000    1.15698000      0.812250   -0.77209600   -2.24938600
Ge   18.10910000   14.67586000   12.25724000     -0.195271    0.32910100    0.69802600
Ge   20.25565000   20.66320000    5.65811000      0.248960   -0.51365400   -0.46945700
Ge    0.07824000   20.98598000   15.48566000      0.032914   -0.42580500    0.16897700
Ge    5.45814000    3.03854000    3.07645000      0.259528   -0.50097700    0.43367500
Ge    6.14524000    4.73207000   16.49995000      0.408210   -0.20896500   -0.31097300
Ge    3.73642000    9.79531000    4.47545000      0.125951    0.03412600   -0.21716300
Ge    4.46186000    8.15066000   12.28790000     -0.007892   -0.48542800   -0.05032800
Ge    5.67376000   14.42396000    0.09063000      0.639971    0.06228200    0.24582400
Ge    3.24855000   14.63661000   13.23131000      0.528382    0.91401900    0.34054400
Ge    4.40839000   22.27952000    5.31802000     -0.191499    0.14055300    0.88954800
Ge    7.25138000   19.61181000   12.54946000      1.058984    0.37692900   -1.26799500
Ge   11.77690000    4.51914000    5.62917000     -0.785445    0.58541600    0.05687000
Ge    7.33224000    1.23865000   13.64108000      0.749214    0.62747100   -0.15947200
Ge   12.15929000   10.79083000    2.68250000     -0.208641   -0.35456400   -0.13243700
Ge   13.28349000    7.23542000   14.19916000     -0.148084    0.44036000   -0.46570300
Ge   10.32456000   14.17568000    1.46757000     -0.046485   -0.29143700    0.26810300
Ge    9.37220000   16.11934000   11.78282000     -1.400286    0.07446000   -0.57477500
Ge   11.85092000   22.31267000    1.36929000     -0.289419    0.52116600    0.03837700
Ge   12.09787000   18.51389000   11.80684000      0.320634    1.00470500    0.04718000
Ge   21.52360000    0.25259000   17.46918000     -0.387864   -0.15616900    0.20606300
Ge   14.80739000    4.76415000   11.63891000     -0.770664   -0.47005000   -0.85205500
Ge   17.30936000    8.01123000    2.07173000     -0.200577    0.12719100    0.14815600
Ge   16.45648000    7.66348000    9.98405000     -0.896560   -0.06584700   -0.21041200
Ge   17.92820000   11.61042000    3.67973000     -0.040255   -0.84560600    0.31426800
Ge   19.54757000   14.87377000    7.40574000     -2.486385   -0.78914800    0.05541300
Ge   18.23718000   18.66874000    2.35061000     -0.419743    0.00390500    0.51984600
Ge   16.66584000   20.41259000   12.66603000     -0.538942   -0.75081300   -0.79137100
Ge    0.64013000    0.51245000    2.02660000      1.018570   -0.23220600    0.21742900
Ge    0.73535000    0.69794000   10.71412000      0.284849   -0.11992400    0.07712200
Ge   20.18055000    5.75650000    4.49197000     -0.218867    1.17069800   -0.14307100
Ge   22.41398000   10.34434000   13.27973000     -1.456375   -1.57084800   -0.40995000
Ge   21.51406000   12.91955000    3.08969000      0.029477   -0.55773400    0.73600300
Ge   22.32945000   18.14444000   10.26989000      0.381135    0.01782500    0.09859400
Ge    2.86303000   20.46406000    3.48719000      0.079012   -0.11681000   -0.32243500
Ge   19.95118000   17.49738000   12.22338000      0.985400    0.01522300    0.37754000
Se    0.46068000    1.00713000   18.80946000      0.147780    0.10151100   -0.30491900
Se    1.54004000    3.13825000   10.30670000     -0.334163    0.17861000   -0.38070000
Se   22.72287000    6.05831000    2.32627000     -0.619519    0.35961500   -0.43288000
Se   22.86555000    7.86244000   12.62719000     -0.559958    0.47276500    0.26791500
Se    3.07167000   11.13188000   19.27033000      0.259918   -0.25647200    0.21124200
Se    2.07547000   13.35066000    9.56149000     -0.721041   -0.58284500    0.49643200
Se    2.60368000   17.75684000    3.77818000      0.231279    0.82771100   -0.07257000
Se    0.83015000   20.26569000    9.78101000      1.352516   -0.20870300    0.11225100
Se    7.41982000    2.07467000    1.78817000      0.301686    0.27060400   -0.04424600
Se    5.96149000    1.74877000   11.62136000      0.039606   -0.28983400   -0.55195700
Se    7.88758000    5.77661000    1.58033000      0.411212    0.92733800    1.17451700
Se   10.62169000    7.83303000   12.11749000     -0.326143   -0.50842300   -0.73747600
Se    7.70986000   11.64973000    0.77634000     -0.055419   -0.06816600    0.10432600
Se    5.83731000   15.01609000   13.16340000     -0.463999   -0.25399500   -0.13642900
Se    5.27697000   19.27802000    1.58848000     -0.836172    0.78822300   -0.02202400
Se    9.64703000   18.82010000   10.31088000     -0.195760   -0.46508100    0.59237400
Se   14.04487000    3.16996000    0.97870000      0.287132    0.45579600    0.06927900
Se   12.66042000    0.65957000   10.22869000      0.604638   -1.06338200    0.22213900
Se    9.35124000    7.59577000   19.10768000      0.345131    0.10555800    0.99426400
Se    9.75979000    9.56496000    8.83735000      1.393141   -0.69808000   -0.13779700
Se   12.01110000   12.37678000    0.57011000      0.594440    0.02641400    0.77450300
Se   13.40610000   11.46439000   10.71281000     -0.138086    1.02145300    0.30137000
Se   16.02892000   14.43189000    0.90358000      0.121515    0.72419600   -0.21247000
Se   11.64030000   18.10652000    8.40435000      0.804574    0.05290200    0.12513000
Se   16.75668000    3.70009000    2.86103000      0.464458    0.01168300   -0.82403000
Se   14.56524000    1.78287000   10.94931000      0.500602    0.01683900   -0.83557700
Se   17.87806000    6.42014000   17.88862000      0.071489   -0.19436200   -0.88821100
Se   21.08938000    7.83754000   10.74284000      0.580159    0.11782800    0.10403100
Se   18.49595000   10.48029000    0.66033000     -0.034848   -0.04584200    0.63587300
Se   17.55654000   15.91589000    6.36168000      0.414105   -0.22167500    0.08386400
Se   19.85289000   16.39774000    0.88660000      0.884357    0.86256100    0.42158900
Se   18.08304000   18.27443000   10.90385000     -0.870592    0.71284700   -0.00947400
Se    4.12747000    4.99349000    2.32413000     -1.329294   -0.34271500   -0.66169500
Se    2.84741000    6.31615000   11.47883000      0.490748    1.11905700   -0.06491000
Se    4.85656000   10.03089000    2.06736000     -0.515939    0.29520600    0.09420100
Se    5.39292000   13.23293000   11.61042000      0.072617   -0.36104300    0.02459300
Se    4.22523000   14.53014000    3.55370000      0.535983   -0.74419100    1.05635100
Se    2.83963000   16.82191000   10.99862000      0.292311   -0.03553900   -0.22440300
Se    4.54031000   22.90201000   18.37872000     -0.507425    0.07886700   -0.05795500
Se    6.57108000   21.30406000   10.50853000      0.020347   -1.38364800   -0.16126700
Se   10.74305000    6.84677000    4.24442000     -0.143836   -0.67876900   -0.65722600
Se    7.51517000    2.93945000    9.72637000      0.404459   -0.15434900    0.90511300
Se   10.40717000   11.14343000   17.24628000     -0.321015   -1.28013200   -0.98175600
Se    7.69193000   10.40170000    8.86049000     -1.859663    0.75987400    0.49330100
Se    9.74668000   17.47610000    0.35681000      1.253414   -0.20541200   -0.17421500
Se   11.71716000   16.05885000   11.33239000      1.015847   -0.65776300   -0.41781500
Se   14.14133000    0.16831000    2.27632000     -0.924026   -0.15231300    0.07593100
Se   12.21482000   20.95596000   12.47774000     -0.149096    0.26715800   -0.06388900
Se   12.97986000    6.96493000    1.31144000      1.257383   -1.47065400    0.23272000
Se   18.24806000    7.69992000   11.79663000      0.411719    0.41617100    0.36945900
Se   15.22235000    8.63985000    0.29050000      0.202695   -0.42077200    0.15263700
Se   15.17570000    9.93590000   12.68669000     -0.219856    0.76744500    0.08150300
Se   19.02259000   13.89637000    3.99807000      0.584505    0.18812000   -0.66115200
Se   14.31323000   14.27440000    9.65797000      1.018410   -0.24495600    0.04938300
Se   17.00865000    0.52054000    0.82197000      0.050496   -0.90589100   -0.24603100
Se   14.28275000   19.12553000    9.85980000     -0.261850    0.32449400    0.24811300
Se   21.23730000    0.94033000    2.20660000     -0.440526   -0.43303100   -0.48635200
Se   22.62030000    4.59768000   11.57999000      0.685835    0.78646500   -0.27786000
Se   20.16952000    6.61192000    2.07144000      0.854766   -0.64875700    0.11507500
Se   21.71251000   11.01493000   10.82157000      1.244801    0.12789100    0.52942200
Se   21.07806000   12.77056000    0.49691000      0.196975    0.80488100   -0.16442400
Se   22.19719000   15.86581000   11.59992000      0.841002    0.56903600   -0.08271700
Se    1.00211000   20.98137000    1.82582000      0.703850   -0.26035100   -0.20004500
Se   19.93790000   20.90956000   14.35798000      1.452501   -1.01506900   -0.82448500
Se    4.49524000    4.77788000    8.27693000     -0.039007    0.07473100    0.21248000
Se    0.13458000    5.64149000   16.45009000      0.290340    0.33601400    0.08714300
Se    3.93898000   10.82711000    9.09111000     -0.061453   -0.64389400   -0.03089600
Se    3.42403000    8.58582000   17.49851000     -0.324744    0.78009700    0.58489100
Se    4.25135000   18.24735000    7.15284000     -0.293497    0.52721900    0.31196900
Se   22.73478000   17.97665000   15.47303000      1.704175    1.32634900   -0.89782900
Se    4.24725000   22.43186000   12.55849000     -0.820356   -0.52285500   -1.06580800
Se    8.61211000    0.25043000   16.85913000      0.899485   -0.66429700   -0.27789500
Se    6.58433000    5.13935000    4.40696000      0.452078   -1.24219700    0.06820200
Se    6.42554000    5.17772000   19.19457000     -1.385544   -0.90084500   -1.35852200
Se    6.16046000   10.82968000    5.18986000      0.215614   -0.53481300    0.00271100
Se    3.45713000    7.26290000   15.53681000      0.747325   -0.81313600   -0.20980100
Se    6.34207000   16.98148000    9.17526000      1.031063   -0.16513000   -0.23916000
Se    7.20136000   16.36443000   18.25737000     -1.491051   -0.29570900    0.51743500
Se    8.12992000   18.51521000    5.86527000     -0.673545   -0.14383000    1.66899400
Se    7.37261000   21.92219000    0.39744000      0.067764   -0.24536300    0.73743600
Se   15.85881000    1.25604000    7.70166000     -0.362324    0.22296300    0.83784900
Se   12.64209000    4.35363000   15.45031000      0.658780   -0.22667000    0.17832400
Se   13.40767000    8.34842000   10.51392000      0.452424   -1.56591500    0.46022100
Se   13.95260000   11.20167000   16.72599000     -0.021333    0.44567700    0.16501700
Se   13.56984000   15.37671000    6.25489000      0.383529    0.07581000   -0.50474400
Se   14.14753000   16.04382000   17.58531000     -0.642429   -0.23156500   -0.44466600
Se   12.23858000   21.72520000    6.95141000      0.633099    0.25641900   -0.27819300
Se   18.56589000   20.56993000   17.58530000     -0.360098    0.77032600    0.14891900
Se   19.08053000    2.93279000    9.38594000      0.644659    0.11624200   -0.19750500
Se   20.09372000    2.49689000   17.64333000     -0.189811    0.41892100    0.81185300
Se   18.18894000   10.35345000    9.12269000     -0.186604   -0.20359400   -0.04079000
Se   17.40893000   10.98475000   15.97517000      0.192734    0.84578800   -0.07098200
Se   15.64244000   16.31765000    9.48509000     -0.009651   -0.90124000    0.76766600
Se   18.01517000   15.28226000   15.17226000     -0.512194   -0.11231600    0.46958200
Se   18.58137000   18.30584000    8.65110000      0.138457    0.36965800   -0.29587400
Se   20.70337000   20.26519000    1.48825000     -0.108160   -0.46956400    0.73017800
Se    5.03682000    0.41541000    7.74272000     -0.632068    0.44669200   -0.14094100
Se    0.18957000    3.43017000   17.49731000      0.900500    0.10175400   -0.59759400
Se    6.88282000    6.85855000   10.34863000     -0.592636    0.93586300    0.08372200
Se    2.12289000    8.22073000    0.56607000      0.446759   -1.00826800   -0.30255500
Se    4.01640000   14.65967000    7.65956000     -0.021951    0.93162800    0.49468200
Se    5.27074000   14.03499000   16.74908000     -0.588466   -0.05763600    0.05975400
Se    3.19490000   21.06991000   10.18708000     -0.567175   -0.99785700   -0.46410700
Se    0.14512000   16.47680000   18.69221000     -0.614165    0.97622900    1.45624000
Se    9.04893000    0.44106000    8.84792000      0.018655    0.27857200    0.12542700
Se   10.77077000    3.91351000    1.68217000      0.457562   -4.16690500    0.07695700
Se   12.14081000    4.34853000   10.68895000     -0.769553    0.37282400    0.58879000
Se    6.11394000    7.99273000   19.00077000      0.292193    1.01767200   -0.39992900
Se   10.41610000   13.74002000    8.32320000     -0.154620    0.02889800   -0.53476400
Se    8.34900000   12.15899000   17.56567000     -1.090274   -1.10550300   -0.10168100
Se    9.82152000   21.27572000    8.34823000      0.517545   -0.39813500    0.29518300
Se   11.89742000   15.22895000   16.85323000      0.523066    0.08278300    0.08692400
Se   17.02801000   20.56230000    7.75706000      1.127933    0.10279500   -0.14705000
Se   15.36024000    4.10822000   18.70374000     -0.080028    0.37427000   -0.26495000
Se   15.07909000    4.75107000    8.85193000      0.381338    0.58459000    0.80090400
Se   11.68946000    8.63701000    0.62135000     -0.323548    2.47616500   -1.21878300
Se   16.35932000   12.21644000    9.66370000     -0.289769    0.14694000    0.07717400
Se   16.47472000   13.25544000   18.11483000     -0.119836    0.27850100    0.47937100
Se   15.47147000   18.50675000    6.44679000      0.383839    0.41193200   -0.13374700
Se   16.28604000   19.20448000    0.62646000     -0.837588    0.82247400    0.30011600
Se   22.02863000   22.76502000    9.10215000     -0.697998    0.15349200   -0.42958000
Se   22.72455000    1.21042000   15.29273000     -0.123993   -0.84900700   -0.28501000
Se   20.71741000    6.64756000    8.06635000     -0.338955   -0.21465500   -0.23704800
Se   20.65434000    8.29804000   18.00045000      0.795338    0.70564600    0.28967200
Se   21.45646000    9.92696000    7.29072000     -0.539372   -0.92104900    0.28884500
Se   22.00205000   10.48044000   17.15200000      0.067442   -0.65754400    0.08285900
Se   21.09894000   16.20851000    6.50902000      1.432661    0.68464900   -1.00157800
Se   17.91257000   17.48589000   19.05890000      0.173045   -0.55968400   -0.56778400
Se    2.51046000    1.11474000    8.63154000     -0.636989    0.37908700    0.25884200
Se    4.13456000    3.16795000   15.78009000      0.098360    0.22193300    0.65868100
Se    1.20046000    8.16796000    7.13373000     -0.209209    0.09907000    0.27342700
Se    0.66106000    8.74250000   15.56006000     -0.068345    0.73007800   -0.20031400
Se    1.48719000   16.05416000    7.23312000      0.031238   -0.17104500   -0.62148900
Se    0.79074000   12.77048000   16.87647000      0.579073    0.03968900    0.02482000
Se    0.78595000   18.34298000    5.83981000      0.195386    0.48244700   -0.61066700
Se    2.82378000   20.40018000   16.03097000     -0.588061   -1.38013900   -0.13777800
Se    7.07173000    1.33754000    4.85600000      0.632101   -0.05510500   -0.38914100
Se   11.89787000    1.22256000   18.32951000      0.225628   -0.06352500   -0.46342600
Se    7.82413000    6.98834000    6.48554000     -0.447764    0.53241700    0.40945100
Se    7.82133000    7.03199000   14.71598000     -0.128428    0.32815400    0.13024400
Se    7.31273000   13.87557000    6.17743000     -0.178941   -0.37255500    0.01345500
Se    7.73378000   17.09042000   15.26811000      0.578132    0.42115700   -0.57995200
Se    5.45457000   20.03128000    6.14240000     -0.227939   -0.07398600    0.06806900
Se    8.93116000   15.01986000   15.47498000      0.664122   -1.24668200   -1.59722900
Se   14.95249000   21.31756000    5.94552000      0.058881    0.05271100   -0.10881200
Se   15.01925000    1.54061000   16.78306000      0.283061    0.16198700   -0.93342100
Se   12.28300000    6.66241000    7.04951000     -0.318902   -0.07602100   -0.04421400
Se   11.43212000    7.13335000   15.88890000     -0.303677    0.63586200    0.05413200
Se   13.06747000   11.50616000    5.00013000     -1.144608   -1.47272700    0.78284900
Se   14.32353000   14.15867000   13.30323000     -0.174623   -0.42021000   -0.25794400
Se    9.75916000   15.74688000    5.27652000      0.132752   -0.33779400    0.14156700
Se   13.30493000   20.74368000    0.27263000      0.871635   -1.42906100   -0.71213000
Se   20.78067000    1.70941000    5.13143000      0.057632    1.03981100    0.94923000
Se   18.60313000   22.55668000   16.13785000      0.481340   -0.25216700    1.56831800
Se   17.70200000    4.64584000    6.48204000     -0.908239    0.04463800    0.76952000
Se   18.14231000    6.72443000   15.27876000      0.397786    0.05450700    1.07849500
Se   20.20592000    9.89280000    3.62626000      0.420921    0.06697200    0.06669500
Se   16.64483000   12.69112000   12.65548000      0.357692    0.64564900    0.33344600
Se   17.73821000   20.39934000    4.28799000      1.329438    0.12724700   -0.04067300
Se   17.32889000   22.27223000   14.14384000     -0.403194    1.59220200   -0.45910800
Se    3.12329000    6.81834000    6.57670000      0.372744    0.48538500    0.97376500
Se    3.81658000    4.53875000   12.55178000      0.184263   -0.52219000    0.80920600
Se    1.86931000    7.62930000    3.10208000     -0.061749   -0.10475500    0.29628900
Se    4.46009000   11.47995000   14.97930000     -0.754335   -0.67396900    0.06592500
Se    5.03275000   12.70884000    6.82893000      0.650284   -0.48763100   -0.24952900
Se    3.77107000   17.52963000   18.66745000     -1.001095    1.10088000    1.40381500
Se    1.87241000   21.51034000    5.73006000      0.181510    0.31724700   -0.10278500
Se    5.25497000    0.01401000   14.55334000     -0.363700   -0.22886700    1.82355700
Se   10.99008000    2.50224000    6.93361000      0.222197   -0.13834000    0.16844000
Se    9.08817000    4.25690000   16.18442000     -0.448260   -1.24853300    1.01768500
Se   10.10807000   10.06849000    6.52307000      1.022189    0.39339900    0.01860200
Se    8.13407000   11.07395000   14.60301000      0.155388   -0.40951300    1.16603500
Se    8.69395000   15.58174000    9.03718000      0.270748   -0.28646800   -0.17044500
Se   11.02226000   18.18666000   15.87503000      0.294264   -0.17272800    0.29171600
Se    8.35283000   19.09095000    3.61542000      0.730477    0.50435300   -1.11367100
Se   10.63032000   21.33599000   16.40191000     -0.175670    0.12805900    0.18229600
Se   14.06378000    3.87978000    5.47098000      0.825781   -0.64655300   -0.56275300
Se   18.73660000    3.01421000   14.76552000     -0.056598    0.17457400    1.11321000
Se   14.76069000    8.88066000    7.32529000      0.450576    0.53734400    0.02938300
Se   16.79560000    9.33428000   14.28656000      0.533005   -0.80805200    0.48704500
Se   16.66976000   12.25674000    6.04528000      0.058177    0.87021800   -0.69243200
Se   15.93637000   19.27818000   15.72179000      0.266829    0.22812600    0.89999500
Se   16.20536000    0.43769000    5.58927000     -0.498500   -0.31582400   -0.59942800
Se   19.02867000    3.25779000   12.49397000      0.124464    0.22735600   -1.33833800
Se    0.55320000    4.33317000    8.27491000     -0.353554    0.05254800   -0.23816500
Se   22.88914000    3.32020000   13.90089000     -0.433212   -0.04164500   -0.72806000
Se   20.13395000   12.39455000    7.31989000      0.143326    0.46982700   -0.37590000
Se   20.65673000   13.26107000   16.20405000      0.066384   -0.02642700    0.00126200
Se   22.17596000   12.41471000    5.74701000     -0.138007   -0.39502900   -0.31367000
Se   18.90745000   18.47537000   14.26942000      0.006477    0.33762000    0.74240000
Se   22.11459000   19.11073000    7.60422000     -0.650541    0.37793900    0.73824300
Se   22.44951000   20.71167000   17.95070000      0.137279   -0.04130700   -0.45309700
Se    3.14339000    2.84472000    5.34724000      1.975173    0.56563200   -1.24512700
Se    6.85409000    1.92504000   17.58812000      1.788233    0.33435800   -1.30075100
Se    2.71078000    4.30050000    0.45779000     -0.035210   -0.59460100   -0.18949100
Se    2.74809000    9.65842000   11.09385000      0.280205    0.08238400   -1.21205900
Se    1.16182000   11.64340000    2.91266000     -0.465642    0.16971700   -0.29971700
Se    3.00290000   16.93707000   14.83460000     -0.752707   -0.59228900   -0.83414200
Se    4.07646000   15.86049000    1.66259000     -0.019744    0.56759200   -0.91624200
Se    5.13762000   19.27026000   13.59289000     -1.174215   -0.20354200   -0.12616400
Se   10.44549000    0.90705000    3.49933000      0.041823    0.25955600   -0.02823700
Se   11.24990000    0.85696000   13.99842000     -0.530622   -0.31747100   -1.15235100
Se   10.09444000    9.00288000    3.39117000     -0.166086    0.73547800    0.04825200
Se    7.52180000    9.03274000   16.65846000      0.049479   -0.69358300   -0.04642400
Se    9.81040000   12.56295000    3.64794000      0.234260    0.00789000   -0.27564400
Se    9.37055000   13.08884000   11.82421000      0.615362   -0.02124200    0.54499100
Se    9.26786000   20.65916000    1.05740000     -0.109887    0.26562700   -0.55277700
Se    9.94084000   18.02509000   13.71423000      0.174690    0.89613100    0.29496500
Se   19.11947000   22.26515000    8.14660000     -0.305070   -0.64545700   -0.30490600
Se   14.63054000    2.68329000   13.14798000     -0.523485    0.40500900    0.49442700
Se   15.42798000    7.06803000    3.89914000      0.468887   -0.25100300   -0.23428500
Se   14.94229000    5.77223000   15.32622000     -0.341066   -0.52977400    0.75394900
Se   15.66255000   12.32867000    2.34524000     -0.112860   -1.03070300   -1.58722700
Se   16.51948000   16.96666000   12.99607000     -0.475484   -0.59943600   -0.47472700
Se   16.23031000   16.77328000    3.04319000      0.003693    0.02255600    0.43259700
Se   14.06297000   20.17739000   14.36466000      0.200892   -0.65200500   -0.14256300
Se    0.18175000   22.76135000    4.60318000     -0.180804   -0.31664600    0.71307600
Se   21.48175000    0.00210000   13.48015000      0.278170    0.43843500    0.34798000
Se   19.75301000    3.50814000    3.81592000     -0.108295   -1.52679600   -0.49450200
Se   20.13230000    9.82858000   14.08044000      0.827526   -0.31462800    0.00153100
Se    2.39155000   11.80775000    5.67069000      0.335894   -0.13044600   -0.12887600
Se   21.64164000   15.38273000   15.39170000     -0.538356   -0.85350100   -0.74619500
Se   22.39677000   19.18260000    4.04338000     -0.694108    0.01752900    0.59031000
Se   21.53025000   20.00103000   12.19902000     -0.606764   -0.50740700    0.14608700
Se   22.64342000    5.17144000    5.54891000      0.614469   -0.53250700    0.27388700
Se   20.68341000    6.37336000   15.20811000     -1.058300   -0.75493900    0.56897200
Se   22.68608000    9.82419000    2.30038000     -0.052036    0.65017600    0.00587400
Se    1.05048000   11.91800000   13.74191000      0.357783    0.54103300   -0.58583600
Se    1.91100000   13.88921000    1.05177000     -0.417866   -0.49602000    0.40540400
Se    1.91914000   22.53870000   12.97590000     -0.083532    0.18123200    0.47169500
Se    4.39525000    0.16995000    2.96761000     -0.261994   -0.64479400   -0.18902000
Se    5.72462000   18.20415000   15.73009000     -0.431233    1.43119900    0.23468100
Se    8.72886000    5.19111000    7.89457000      0.323192    0.28571800    0.30894500
Se    7.77970000    4.80761000   12.92323000      0.432730    0.74518400   -0.50644900
Se    5.11700000    6.96444000    4.27589000     -0.135179    0.73399900    0.08016900
Se    7.70974000   11.11128000   12.42231000     -0.074976    0.51878700   -1.18388700
Se    8.03440000   15.44700000    2.33541000     -1.192196    0.22274900    0.67648900
Se   11.99347000   14.68001000   13.61653000     -0.184767    0.27586300    0.50412200
Se    7.01018000   22.62793000    6.51997000      0.154237   -0.13562400   -0.50231600
Se    7.69509000   21.54211000   14.05318000      0.522832    0.30288700   -0.00942800
Se   12.70713000    1.78588000    3.36128000     -0.075775    0.03365100    0.52893600
Se    9.51976000    1.58783000   12.34356000      0.669745    0.14563500    0.04980500
Se   14.59018000   10.04475000    3.54034000     -0.070070   -0.11990100    0.13498900
Se   11.72589000   10.58618000   13.05200000      0.076042    0.03104100    1.27679600
Se   12.43124000   15.20038000    2.82354000     -0.436959    0.08192000    0.10911500
Se   13.57227000   17.69902000   13.82903000     -0.009823    0.42319400   -0.53083200
Se   11.66289000   19.54776000    2.94671000      0.410625    0.15525700    0.42064000
Se   14.03120000   22.95445000   14.87151000     -0.096111    0.18735500   -0.68117100
Se   18.22217000    3.83750000    0.95453000     -0.900419    0.24788000    0.69151700
Se   16.19237000    6.49962000   12.59021000      0.297964    0.42193100   -0.29515500
Se   18.18799000    8.91005000    4.75229000      0.195258    0.22390000   -0.19849600
Se   20.10352000   13.15190000   11.76047000     -0.144505   -0.64912100    1.26236800
Se   22.41869000   15.60239000    3.31448000     -1.288388    0.39072000    0.76478200
Se   19.52376000   15.33004000    9.78108000     -0.905175    0.70796600   -0.77690900
Se   19.82445000   21.94401000    3.39563000     -0.874303   -0.64139200   -0.09522400
Se   16.89837000   22.30918000   11.17371000     -0.329969   -0.29330700   -0.26504300
