384
23.00800000 23.00800000 19.32000000
Ge    5.88692000    4.49885000   10.87907000     -0.132211    0.47267300   -0.10358100
Ge    4.47713000    7.36826000    1.60435000     -0.520735    1.32816900    0.39923000
Ge    1.63148000   10.75520000    7.81362000      0.135546    0.16873000    0.22923200
Ge    5.64084000   10.49565000   18.50530000     -0.184478   -0.20935600   -0.22802700
Ge    4.84269000   15.29402000   10.34911000     -0.514802    0.00722200   -0.47324600
Ge    7.49277000   17.82044000    1.51442000      0.258660   -0.74208700   -0.39390800
Ge    7.68002000   19.74344000    8.81897000     -0.147250   -0.05213300    0.31588900
Ge    5.03294000    2.64553000   18.62833000     -2.513384    0.37600900    1.20002900
Ge    9.22280000    6.09260000   10.97429000      0.039800   -0.65815000    0.63083300
Ge   10.66831000    6.06432000    1.73721000     -0.257084    3.61360000    0.76552700
Ge   11.96448000   13.75722000   10.25711000     -0.711839   -0.83405800   -0.09082500
Ge   12.20806000   12.63971000   17.55990000      0.156577    1.41170400   -0.12088000
Ge    9.83213000   17.22948000    7.25158000     -1.077184   -1.41765000   -0.52684400
Ge   13.54367000   16.12879000    0.79077000      0.695179    0.17608400   -0.14679200
Ge   10.92142000    2.27084000    9.75894000     -0.729594    0.38940900   -0.32215700
Ge   15.89669000   21.47274000   18.66972000      0.590980   -0.27294200   -0.09905300
Ge   19.54596000    5.82646000   10.80132000      0.251057   -1.12774500   -0.33676400
Ge   18.30479000    9.15400000   17.85360000      0.543881   -1.27220300   -0.35260500
Ge   21.57405000   13.91982000    9.57771000      0.447874   -0.08959500    1.00332400
Ge   16.32105000   10.78626000   18.79640000     -0.231859    0.24624500   -0.07671800
Ge   14.12976000   17.17754000    7.97246000     -1.045361    1.09104800   -0.90573400
Ge   18.85735000   14.35349000    1.32084000     -0.752960   -1.68133000    0.07208300
Ge   19.80324000    0.65069000   10.21466000     -0.136805    0.16549300   -0.12931500
Ge   17.13358000    1.78654000   17.97871000      1.529732    0.19284400    1.17720200
Ge    0.49168000    7.17233000   10.26368000      0.077418   -0.27338700   -0.46965500
Ge   21.96635000    2.99240000    0.33346000     -0.644435    0.08490000   -0.14451000
Ge    1.18939000   11.68386000   11.16901000     -0.557592    0.68153500   -0.41363000
Ge    0.11167000   11.22333000    0.05972000      0.560049    0.22489400   -0.30747400
Ge   22.70492000   14.19386000    7.18327000      0.273941    1.79164900    0.67310500
Ge    0.86304000   15.93081000   16.48407000      0.591120   -1.25547900   -0.37246400
Ge   20.66013000   20.52018000    9.45905000     -0.001861    0.13862400   -0.23107300
Ge    3.55514000   21.13432000    0.45828000     -0.464927   -0.76188000   -0.14073100
Ge    6.34095000    8.38717000    8.32172000     -0.026894   -0.37694800    0.09998700
Ge    0.86082000    5.87167000   19.17321000      0.123097    0.60119700    0.61434400
Ge   21.81592000    7.88850000    5.80874000      0.253889   -0.03567700    0.07553500
Ge    2.99453000   13.44787000   15.73066000      0.507264   -1.06711600   -0.01524500
Ge    5.91824000   16.50822000    3.84659000     -0.185862   -0.39271300   -1.02775800
Ge    1.83319000   19.32259000   18.17660000      0.172461    0.85155000    0.15595800
Ge    4.63878000   18.79418000   10.01611000     -1.107790    0.58859100    0.11960000
Ge    3.07357000   22.81360000   15.98130000     -0.310986    0.62952200    0.46297400
Ge    8.16324000    2.85099000    7.36702000     -0.027813   -0.34284900   -0.77583200
Ge    8.34975000    3.62797000   19.13432000      0.570323   -0.92903900    0.05061100
Ge    7.29216000   12.55506000    3.72265000     -0.221416    0.98354400   -0.40917600
Ge    7.97218000    9.19009000    1.51297000     -0.447773   -0.68588500   -0.29418500
Ge    5.98904000   16.05155000    6.38824000     -0.483686    0.38904400    1.08869600
Ge    8.90346000   14.57602000   17.71072000      1.146616    0.93312200    2.44738000
Ge   10.06094000   22.50941000    6.03792000      0.409826    0.27404800   -0.06879700
Ge   10.19522000   21.39222000   13.89915000      0.548485    0.03137300    0.33885700
Ge   13.01209000    5.99993000    9.24174000      0.492154    0.47847000   -0.02507100
Ge   14.17770000    6.44313000   17.87297000      0.065538   -0.14828200    0.12308700
Ge   12.86837000    9.99555000    8.85976000     -0.634441    0.02634000   -1.22116100
Ge   15.76473000   13.20353000   15.19597000      0.556164    0.21562200   -0.05948200
Ge   14.20369000   17.48467000    4.58968000     -0.040660   -0.73567200   -0.53830800
Ge   13.53697000   18.57395000    1.81410000      0.670191    0.76010300   -0.57500300
Ge   15.12127000   21.62957000    8.96287000     -0.061154    0.27301100    0.81019400
Ge   16.55728000    1.87604000   14.48028000      0.025576   -0.89043900    0.67106800
Ge   20.87423000    4.03113000    7.56345000     -0.384499   -0.15033000    0.08877600
Ge   20.43584000    5.50650000   17.71818000     -0.096999    0.35149300   -0.35558300
Ge   16.13066000   10.75113000    7.78729000     -0.002273   -0.44972200    0.59100600
Ge   19.34154000   15.86150000   17.43277000     -0.527830   -0.69250400   -0.11419600
Ge   19.07322000   16.38594000    4.37132000     -0.235317    0.28228900    0.33153600
Ge   20.55087000   17.67016000   16.08089000     -0.720364    0.13253100    0.22422900
Ge    0.09999000    2.32071000    4.31280000     -0.019016    0.42759400    0.41320900
Ge   19.93365000   22.36424000    0.46977000     -0.471043    0.13788800   -0.98074200
Ge    5.37045000    3.11945000    6.63325000     -0.018737    0.02810100    0.75041500
Ge    2.45330000    4.84349000   14.98685000     -0.040024   -0.01637500   -0.70911600
Ge    2.12438000    5.44128000    4.83136000      0.098772   -0.14456800   -0.82910400
Ge    2.72488000    9.37107000   14.20063000      0.138851    0.80128500    0.34839200
Ge    1.73083000   15.62501000    4.45671000      0.471463   -0.77241000    0.31666200
Ge    1.46333000   17.85629000   12.96062000      0.029544   -0.12510400    0.12307700
Ge    1.33192000    2.55250000    6.71633000     -0.929773   -1.02574700    0.86107400
Ge    4.63349000   16.46415000   16.91915000      0.272400   -1.23691300   -0.41758000
Ge    8.85391000    3.39301000    3.50825000      0.572594   -0.41177700   -0.38778600
Ge   10.41535000    1.76621000   16.09372000     -0.579821    0.80378500    2.06797000
Ge    8.24970000    9.31289000    5.20647000     -0.071304   -0.93323700    0.40075400
Ge   10.13088000    8.78148000   14.28480000     -0.647651   -0.11767900    0.40506900
Ge   11.39826000   13.77713000    5.54674000     -0.082458    0.42486200    0.77543900
Ge   10.46201000   12.52064000   14.27370000     -0.327991    0.18664300   -0.73301400
Ge    6.41180000   21.21440000    2.87439000      0.056111    0.57486300   -0.61962700
Ge    9.17362000   19.20471000   17.82596000      0.094138    0.06848000   -0.04961600
Ge   13.48173000    1.37616000    6.05335000      0.294303   -0.20052400    0.58293600
Ge   10.32022000    5.23390000   14.36855000      0.284039    0.62557200   -0.57738700
Ge   15.16793000    5.75018000    6.49751000      0.889883    0.86737400    0.60548600
Ge   13.67151000    9.92273000   14.66418000     -0.853036   -1.21027900   -1.23415600
Ge   14.61480000   13.05063000    4.44224000      1.598903    2.82572800    0.86800600
Ge   15.54583000   16.83744000   15.30847000      0.436570    0.14729500    0.39160700
Ge   10.48190000   17.41059000    3.03853000     -0.453131   -0.48317500   -0.21231800
Ge   13.21966000   22.29312000   17.09561000     -0.865244   -0.19830900    0.89368700
Ge   17.49336000    5.74242000    4.42564000      0.356706   -0.14890800   -0.95559700
Ge   21.38881000    2.38773000   11.79485000      0.133580   -0.48367900    0.67413600
Ge   19.20900000    8.78728000    7.25447000      0.113822   -0.15837000    0.33084600
Ge   19.37526000   12.05315000   14.31647000     -0.454687    1.55650800   -0.35301600
Ge   22.65842000   14.87224000    1.13822000      0.846318   -0.65624900   -1.97837700
Ge   18.14317000   14.69165000   12.23603000     -0.407252    0.11475400    0.62514600
Ge   20.27230000   20.67066000    5.67578000      0.142823   -0.47552000   -0.53653400
Ge    0.10379000   20.97022000   15.48140000      0.142124   -0.49605200    0.12994200
Ge    5.40990000    3.05513000    3.12616000      0.612076   -0.75516900    0.32948900
Ge    6.12509000    4.69084000   16.51051000      0.351514   -0.31488100   -0.39279300
Ge    3.70267000    9.81415000    4.48014000      0.116159   -0.00893700   -0.36266000
Ge    4.42081000    8.16042000   12.27522000      0.148493   -0.43204600    0.10060300
Ge    5.65602000   14.38447000    0.14362000      0.770939    0.07399200   -0.12131200
Ge    3.26163000   14.55692000   13.24704000      0.488579    0.81214600    0.25197100
Ge    4.39552000   22.30764000    5.27535000     -0.179585    0.07424300    1.01746500
Ge    7.22271000   19.64380000   12.51273000      1.122328    0.08682200   -1.31163700
Ge   11.77379000    4.51970000    5.65172000     -0.971349    0.66652600   -0.10033100
Ge    7.37350000    1.20966000   13.71312000      0.347261    0.63662800   -0.32817200
Ge   12.17897000   10.80651000    2.72779000     -0.430170   -0.39646800   -0.30863900
Ge   13.30473000    7.23687000   14.22324000     -0.275746    0.47198600   -0.41874900
Ge   10.30042000   14.17685000    1.45573000      0.118502   -0.18088800    0.11417700
Ge    9.36621000   16.14527000   11.76935000     -1.043054    0.04017200   -0.83922600
Ge   11.73427000   22.26866000    1.31833000      0.047056    0.41260600   -0.13895100
Ge   12.04368000   18.55118000   11.79563000      0.350024    0.67087300    0.13129500
Ge   21.53739000    0.18033000   17.40151000     -0.352307   -0.06018900    0.65437200
Ge   14.81873000    4.78080000   11.71358000     -1.016802   -0.59901500   -1.12761800
Ge   17.29324000    7.98316000    2.11948000     -0.243910    0.12199800    0.13501500
Ge   16.41732000    7.66287000    9.98961000     -0.847527   -0.12120900   -0.29810300
Ge   17.92684000   11.63506000    3.68656000     -0.197871   -0.91959000    0.22635400
Ge   19.46576000   14.85877000    7.41448000     -1.330516   -0.26800200   -0.51191500
Ge   18.23266000   18.67510000    2.32132000     -0.320570    0.06138200    0.50711600
Ge   16.68670000   20.47275000   12.73518000     -0.701011   -1.48787600   -1.15586100
Ge    0.69262000    0.53343000    1.97950000      0.796193   -0.25565300    0.50453100
Ge    0.73419000    0.71906000   10.63902000      0.395451   -0.13784100    0.31099400
Ge   20.23025000    5.76222000    4.48766000     -0.556680    0.65696400   -0.28529900
Ge   22.34490000   10.37394000   13.22871000     -1.389288   -1.47165600   -0.63747000
Ge   21.51602000   12.88603000    3.10373000     -0.005680   -0.29434800    0.74385400
Ge   22.32737000   18.10636000   10.29300000      0.509611    0.49158800    0.02315500
Ge    2.88676000   20.46642000    3.39442000      0.196622   -0.04700400    0.06330000
Ge   19.97102000   17.55115000   12.23069000      0.891946    0.19315700    0.42285600
Se    0.44789000    1.01778000   18.83007000      0.141937   -0.11130800   -0.66060400
Se    1.52124000    3.14222000   10.22442000     -0.115172    0.06628900    0.00391000
Se   22.70808000    6.03953000    2.28574000     -0.581316    0.29919600   -0.43247900
Se   22.84918000    7.92017000   12.61995000     -0.455156    0.39461400    0.68822800
Se    3.05607000   11.13849000   19.22078000      0.276811   -0.37681900    0.13172700
Se    2.07123000   13.36698000    9.56058000     -0.758691   -0.55711700    0.56517400
Se    2.64209000   17.75627000    3.76376000      0.161138    0.57776600    0.05017800
Se    0.81844000   20.30709000    9.77693000      1.450027   -0.39441200    0.23023600
Se    7.46364000    2.06173000    1.83441000      0.009802    0.35667600   -0.13681800
Se    5.87858000    1.78386000   11.63012000      0.403481   -0.41631100   -0.15776700
Se    7.88460000    5.81641000    1.53207000      0.858939    1.05312800    1.77322300
Se   10.61956000    7.86462000   12.08212000     -0.348176   -0.47632500   -0.35589900
Se    7.66208000   11.61713000    0.78498000      0.036984    0.10207000    0.02992300
Se    5.83053000   15.00738000   13.21566000     -0.390558   -0.16084700   -0.05032200
Se    5.27962000   19.36978000    1.59354000     -0.849729    0.63103400   -0.00331600
Se    9.65923000   18.84399000   10.31397000     -0.333780   -0.39976800    0.46272600
Se   14.09503000    3.18383000    0.99032000      0.086294    0.25304100    0.47323700
Se   12.61944000    0.61963000   10.30225000      0.549304   -0.37999000    0.18844200
Se    9.31369000    7.62448000   19.08878000      0.413387    0.25635000    0.71722300
Se    9.73156000    9.54395000    8.85761000      2.143291   -0.84701400   -0.33751300
Se   12.02107000   12.35445000    0.61384000      0.543720   -0.01461000    0.40532500
Se   13.36047000   11.44173000   10.72688000     -0.158231    0.99405700    0.06826600
Se   16.00813000   14.39166000    0.90089000      0.217783    0.82108800   -0.32631600
Se   11.61189000   18.09717000    8.41051000      1.463275    0.32091600    0.47761300
Se   16.74280000    3.71890000    2.78157000      0.238523   -0.20922200   -0.31161900
Se   14.59654000    1.73421000   10.94509000      0.093995   -0.26120200   -0.88233600
Se   17.90107000    6.37223000   17.89730000      0.193604   -0.14146800   -1.02695800
Se   21.11947000    7.81389000   10.72704000      0.434894    0.49648400   -0.02552200
Se   18.43647000   10.46820000    0.66854000      0.305461    0.13852700    0.70045600
Se   17.57340000   15.87687000    6.29246000     -0.211799   -0.07906300    0.22090700
Se   19.88086000   16.39253000    0.85579000      1.052964    1.19693200    0.30821000
Se   18.08684000   18.26997000   10.90557000     -0.819749    0.62303300    0.12907900
Se    4.12141000    4.96380000    2.33729000     -1.322991    0.06051300   -0.71175900
Se    2.83559000    6.30780000   11.52549000      0.252038    1.35881000   -0.32284600
Se    4.86039000   10.06589000    2.04204000     -0.694314    0.17076500    0.10375600
Se    5.40980000   13.25301000   11.65147000     -0.057970   -0.27917500   -0.19731500
Se    4.24981000   14.50023000    3.48771000      0.643480   -1.20902100    1.76840300
Se    2.85270000   16.85027000   11.03951000      0.354556   -0.11394300   -0.40644700
Se    4.52367000   22.86354000   18.35692000     -0.281870    0.36258500   -0.12690200
Se    6.57529000   21.26733000   10.54804000     -0.102604   -1.13289300   -0.24687400
Se   10.74128000    6.87122000    4.30329000     -0.153016   -0.56404700   -0.61910900
Se    7.48056000    2.97149000    9.79220000      0.512274   -0.31957700    0.50303400
Se   10.37858000   11.13951000   17.23884000      0.161056   -1.24707300   -0.84543100
Se    7.73210000   10.42079000    8.82433000     -2.704873    0.95355600    0.55802900
Se    9.77210000   17.50008000    0.35301000      0.880529   -0.22311500   -0.14543200
Se   11.74925000   16.05869000   11.29167000      0.496166   -0.35518500   -0.22381400
Se   14.17350000    0.21354000    2.21820000     -1.042720   -0.04039200    0.10003700
Se   12.27216000   20.94446000   12.50001000     -0.518945    0.42762400   -0.08475700
Se   12.96058000    6.97300000    1.33203000      0.695816   -1.06135200    0.04941400
Se   18.23743000    7.69335000   11.76689000      0.561293    0.66682700    0.49772200
Se   15.22925000    8.66663000    0.31782000      0.166165   -0.38354500    0.09453700
Se   15.18709000    9.95323000   12.66458000     -0.327035    0.77886600   -0.20424500
Se   19.05372000   13.86629000    3.96824000      0.536167    0.40498600   -0.60291700
Se   14.28766000   14.25899000    9.67005000      1.459491   -0.17103200   -0.07866400
Se   17.01493000    0.46174000    0.79192000      0.060484   -0.68787800   -0.66834300
Se   14.32061000   19.11517000    9.89635000     -0.323958    0.35284400    0.14551500
Se   21.25773000    0.92688000    2.19406000     -0.213546   -0.34950300   -0.45262200
Se   22.59749000    4.61577000   11.66831000      0.652567    0.60396600   -0.34907400
Se   20.18949000    6.63269000    2.05238000      0.865072   -0.65838300    0.21211200
Se   21.70133000   11.06952000   10.78972000      1.315229   -0.06696000    0.54974900
Se   21.04382000   12.78498000    0.51927000      0.330170    0.73060300   -0.24997500
Se   22.15164000   15.93904000   11.61328000      0.744302    0.20520200    0.03097600
Se    1.03890000   20.98878000    1.78061000      0.382305   -0.18521800   -0.25759800
Se   19.92760000   20.92494000   14.39738000      1.700964   -1.11421600   -1.03401300
Se    4.49232000    4.77159000    8.31260000      0.022956   -0.00633400    0.12081900
Se    0.13290000    5.57147000   16.43981000      0.209871    0.81744500   -0.15043400
Se    3.91263000   10.75804000    9.08503000      0.106599   -0.66689600    0.00674400
Se    3.34171000    8.64055000   17.50253000     -0.255628    0.70589800    0.39635300
Se    4.17788000   18.24853000    7.12817000     -0.004071    0.65886600    0.17791200
Se   22.79135000   17.96561000   15.47756000      0.950378    1.40961200   -0.89653800
Se    4.29009000   22.44313000   12.58428000     -1.169670   -0.40646100   -1.17447300
Se    8.57739000    0.20001000   16.90660000      1.071801   -0.32472900   -0.46424900
Se    6.57677000    5.17100000    4.40847000      0.563038   -1.40799000    0.02018100
Se    6.45925000    5.15560000   19.23293000     -2.014731   -0.95618600   -1.77017100
Se    6.13955000   10.82808000    5.18122000      0.249961   -0.65601100    0.14816900
Se    3.44406000    7.23264000   15.49744000      0.632945   -0.42210800    0.06610400
Se    6.36284000   17.04730000    9.20227000      1.307275   -0.36760200   -0.34592500
Se    7.17809000   16.32299000   18.24028000     -1.469291   -0.02249300    0.66281500
Se    8.14646000   18.51859000    5.85581000     -0.627588   -0.26292000    1.89454300
Se    7.34075000   21.90468000    0.34662000      0.090383   -0.19198600    0.75603900
Se   15.91580000    1.28522000    7.68574000     -0.441276    0.10924400    0.63408600
Se   12.65765000    4.38209000   15.43978000      0.693034   -0.25710600    0.25153500
Se   13.45348000    8.37141000   10.49569000      0.417691   -1.60797600    0.55080500
Se   13.96601000   11.19167000   16.69279000      0.109025    0.37230100    0.23365100
Se   13.62992000   15.36739000    6.21964000      0.221523    0.03350600   -0.58946400
Se   14.17231000   16.06104000   17.59777000     -0.790366   -0.26189500   -0.66942700
Se   12.26344000   21.63244000    7.03111000      0.223481    0.48610300   -0.52445100
Se   18.64466000   20.55944000   17.59049000     -0.512446    0.79108900    0.05405700
Se   19.04226000    2.93496000    9.38269000      0.653767    0.01872200   -0.04261000
Se   20.13908000    2.47653000   17.71167000     -0.231657    0.35397000    0.63856800
Se   18.17968000   10.37818000    9.11231000     -0.278917   -0.16030900   -0.06091500
Se   17.45598000   11.03512000   15.98603000      0.019040    0.58846100   -0.18309700
Se   15.64343000   16.33571000    9.48735000      0.138650   -0.97741800    0.94557600
Se   17.95248000   15.30199000   15.19718000     -0.406289   -0.25922300    0.44906500
Se   18.60067000   18.25007000    8.67060000      0.199372    0.41642400   -0.32544700
Se   20.69309000   20.24955000    1.49633000     -0.395167    0.29640500    0.54671500
Se    5.04032000    0.44629000    7.75987000     -0.571524    0.51587000   -0.09416800
Se    0.18586000    3.42362000   17.48242000      0.961831   -0.22664500   -0.46347800
Se    6.92437000    6.79905000   10.34586000     -0.917586    1.39232200    0.00387200
Se    2.07334000    8.25115000    0.60071000      0.581902   -0.98845400   -0.51050400
Se    4.00063000   14.67162000    7.63076000      0.285467    0.54891200    0.33943400
Se    5.33909000   14.06165000   16.77036000     -0.976813    0.02006900    0.08099700
Se    3.19770000   21.02127000   10.24471000     -0.700082   -0.85904300   -0.54354000
Se    0.16127000   16.49065000   18.69701000     -0.606604    0.78239100    1.24170900
Se    9.04568000    0.38684000    8.86193000     -0.042737    0.71791900    0.22085500
Se   10.79770000    3.94991000    1.75577000      0.518030   -4.39711200   -0.01668500
Se   12.16892000    4.34362000   10.76128000     -0.641015    0.39121200    0.40615200
Se    6.08853000    7.98381000   19.04416000      0.342413    0.96850500   -0.55568900
Se   10.48119000   13.68891000    8.27722000     -0.133372    0.08445200   -0.26413600
Se    8.38054000   12.20625000   17.52055000     -1.379743   -0.90938500    0.05399500
Se    9.83468000   21.28993000    8.32047000      0.446601   -0.82869000    0.23306800
Se   11.88333000   15.26251000   16.84506000      0.634069    0.01055700    0.17269100
Se   17.02167000   20.55621000    7.79894000      1.265582   -0.05569300   -0.32435300
Se   15.33582000    4.14005000   18.71684000      0.203698    0.48597100   -0.72478700
Se   15.07973000    4.71592000    8.84478000      0.275638    0.63510200    0.88133300
Se   11.65426000    8.66109000    0.61099000     -0.110814    1.92419700   -1.05358500
Se   16.38722000   12.26923000    9.73707000     -0.258650   -0.32513000   -0.37791500
Se   16.50361000   13.25137000   18.06423000     -0.109561    0.39366500    0.57759900
Se   15.50751000   18.52460000    6.38540000      0.057645    0.06453100    0.27174100
Se   16.24552000   19.24323000    0.65517000     -0.713638    0.74921500    0.14560100
Se   22.05080000   22.77992000    9.07075000     -0.919258    0.19075000   -0.48916300
Se   22.73068000    1.16753000   15.38234000      0.004584   -0.75279100   -0.70472000
Se   20.68622000    6.65353000    8.08359000     -0.310107   -0.17474700   -0.16152200
Se   20.69175000    8.26973000   17.99147000      0.418752    0.99018000    0.34945500
Se   21.41837000    9.94471000    7.27339000     -0.321519   -1.02473700    0.33036300
Se   22.00333000   10.48631000   17.19727000      0.069852   -0.91761100   -0.16669200
Se   21.07877000   16.24409000    6.50072000      0.790503   -0.13549800   -0.55873400
Se   17.89692000   17.53224000   19.04406000      0.188973   -0.46930600   -0.39451100
Se    2.48129000    1.09941000    8.58838000     -0.610041    0.42932500    0.32588100
Se    4.13519000    3.17896000   15.75718000      0.107726    0.25878400    0.67222900
Se    1.19999000    8.14128000    7.09303000     -0.200329    0.27335300    0.36828700
Se    0.63298000    8.75950000   15.59770000      0.041053    0.72975800   -0.19857500
Se    1.46879000   16.04829000    7.18614000     -0.013743   -0.22400600   -0.50799500
Se    0.79897000   12.81400000   16.88096000      0.551577   -0.07154900    0.09169900
Se    0.81478000   18.33112000    5.75271000      0.365287    0.59687300   -0.39796400
Se    2.76305000   20.37543000   15.98452000     -0.567766   -0.73750300    0.07713900
Se    7.09033000    1.33114000    4.87505000      0.533831   -0.13161200   -0.40659900
Se   11.89837000    1.21969000   18.37196000      0.211289   -0.26570100   -0.63163400
Se    7.79776000    6.98853000    6.56098000     -0.352117    0.70683900    0.12356100
Se    7.81542000    7.04605000   14.73139000     -0.172143    0.14323000    0.09771400
Se    7.30547000   13.87531000    6.19187000      0.036100   -0.50107900    0.04881800
Se    7.74157000   17.05133000   15.24962000      0.239809    0.24510500   -0.31695700
Se    5.47980000   20.05275000    6.16051000     -0.482327   -0.21075000    0.11463500
Se    8.96519000   14.94913000   15.49726000      0.661059   -0.64751300   -2.29427700
Se   14.94671000   21.29299000    5.96556000     -0.156272    0.17772000   -0.20996000
Se   15.06148000    1.50111000   16.77794000     -0.184557    0.29032000   -1.12068900
Se   12.27148000    6.64286000    7.03175000     -0.251133   -0.04690600    0.29398500
Se   11.40739000    7.10532000   15.89543000     -0.176206    0.68987400   -0.18310900
Se   13.04723000   11.51438000    5.02199000     -1.519459   -1.65429700    1.23470800
Se   14.25512000   14.13611000   13.28224000      0.149861   -0.49599600   -0.22349200
Se    9.80000000   15.69279000    5.25801000      0.181092    0.09896900    0.63212400
Se   13.31354000   20.70819000    0.21870000      0.444990   -1.02954600   -0.39897800
Se   20.83948000    1.67614000    5.16958000     -0.356033    1.15867000    0.76981300
Se   18.62834000   22.53396000   16.07957000      0.837851   -0.21696100    2.15022600
Se   17.66181000    4.64464000    6.52026000     -0.835510    0.22226700    0.18310300
Se   18.09119000    6.67922000   15.32348000      0.304349    0.06231200    1.11270100
Se   20.21063000    9.91350000    3.63047000      0.228515    0.17264800    0.07123800
Se   16.65682000   12.64959000   12.68844000      0.502603    0.78409800    0.26083600
Se   17.76626000   20.33956000    4.25508000      1.205104    0.24838500    0.17609400
Se   17.31410000   22.24315000   14.17432000     -0.682540    2.11393800   -0.40439600
Se    3.14425000    6.85470000    6.62560000      0.426416    0.06829700    0.57734700
Se    3.83844000    4.53131000   12.52183000      0.167359   -0.72390300    1.01896500
Se    1.87486000    7.62158000    3.07461000     -0.083865   -0.16093300    0.45931800
Se    4.40512000   11.41582000   14.93928000     -0.900512   -0.48511600    0.16298800
Se    5.12860000   12.68167000    6.83753000      0.358748   -0.07438700   -0.10337900
Se    3.76858000   17.55964000   18.71361000     -0.537601    0.51042900    0.39789900
Se    1.89680000   21.49344000    5.74390000      0.070374    0.44961500   -0.35989100
Se    5.22514000   22.92994000   14.61228000      0.130547   -0.07574600    1.79363500
Se   10.94369000    2.50462000    6.93433000      0.344247   -0.19666000    0.14795800
Se    9.13111000    4.26551000   16.20549000     -0.299652   -1.15604500    0.75831700
Se   10.11429000   10.10663000    6.53803000      0.859365    0.18484700   -0.03008900
Se    8.06803000   11.07356000   14.65445000      0.088976   -0.34614100    0.27182800
Se    8.70027000   15.58182000    9.01419000      0.309105   -0.25284100   -0.11325800
Se   11.01771000   18.21304000   15.83836000      0.322454   -0.25732000    0.54480400
Se    8.33341000   19.08916000    3.63116000      0.851043    0.49758300   -1.29063600
Se   10.64608000   21.36310000   16.39160000     -0.289155   -0.02030200    0.40537200
Se   14.06464000    3.90341000    5.45489000      0.579328   -1.12899200   -0.90168200
Se   18.71198000    2.98586000   14.77458000      0.109264    0.25513900    0.58403600
Se   14.80524000    8.83603000    7.31306000      0.385343    0.44215900   -0.03087000
Se   16.73547000    9.31270000   14.26292000      0.767098   -0.78724100    0.89802800
Se   16.65229000   12.23967000    6.09902000      0.181560    1.05555300   -1.09112700
Se   15.87085000   19.30565000   15.73072000      0.606826   -0.07863600    1.08441700
Se   16.22636000    0.40805000    5.57706000     -0.627036   -0.21462300   -0.39838700
Se   19.09526000    3.26386000   12.45044000     -0.368857    0.13271000   -0.66431700
Se    0.61992000    4.34587000    8.25861000     -0.451621    0.39777000   -0.19766000
Se   22.88933000    3.33704000   13.86441000     -0.377291   -0.04146100   -0.73309400
Se   20.14070000   12.39532000    7.31053000     -0.006619    0.52720300   -0.21171400
Se   20.69647000   13.27875000   16.23439000     -0.135152   -0.16202200   -0.00403800
Se   22.15900000   12.38237000    5.76748000     -0.005538   -0.25679000   -0.38672800
Se   18.88463000   18.40966000   14.30737000      0.041722    0.43431500    0.58675500
Se   22.12659000   19.14411000    7.64564000     -0.556901    0.29067400    0.50638500
Se   22.46140000   20.68030000   17.94477000      0.092491    0.03113400   -0.41901400
Se    3.18222000    2.78575000    5.35292000      1.214191    0.48878700   -0.81935900
Se    6.84977000    1.98170000   17.50061000      2.120933    0.19043400   -1.60836100
Se    2.75104000    4.26230000    0.46449000     -0.237882   -0.42802100   -0.25116000
Se    2.74207000    9.67065000   11.11691000      0.161915    0.15124700   -1.27743900
Se    1.07506000   11.63083000    2.88359000      0.466307    0.99135900    0.22771000
Se    2.99232000   16.94604000   14.80317000     -0.621739   -0.68597500   -0.60333100
Se    4.09701000   15.83071000    1.67176000     -0.207292    1.19832400   -1.40271400
Se    5.12474000   19.30362000   13.57274000     -1.197036   -0.22575700   -0.06103900
Se   10.44132000    0.98062000    3.54100000     -0.093827    0.12683600   -0.07288100
Se   11.24438000    0.88693000   14.00529000     -0.221308   -0.50566600   -1.35473100
Se   10.09633000    9.02713000    3.37487000     -0.191102    0.63144400    0.17015500
Se    7.51223000    8.98802000   16.65746000      0.100813   -0.49083400   -0.00482100
Se    9.86929000   12.59656000    3.60756000      0.119675   -0.05340800   -0.22393000
Se    9.37714000   13.13265000   11.82724000      0.515207   -0.13602300    0.58879900
Se    9.24456000   20.65547000    1.01240000     -0.010812    0.27853600   -0.69030000
Se    9.94178000   18.02298000   13.73081000      0.063544    0.84967800    0.08319800
Se   19.15813000   22.22626000    8.10234000     -0.385168   -0.45111300   -0.30922200
Se   14.62296000    2.69491000   13.11864000     -0.490294    0.16108800    0.54368700
Se   15.43457000    7.02787000    3.89771000      0.270865   -0.07664600   -0.26209100
Se   14.92948000    5.74529000   15.35423000     -0.132834   -0.59169700    0.68113700
Se   15.61358000   12.33543000    2.31234000     -0.063686   -0.76933900   -1.18185900
Se   16.46520000   16.98807000   13.03768000     -0.510912   -0.46647600   -0.77428700
Se   16.20588000   16.77149000    3.08333000      0.140649   -0.10523800    0.23742600
Se   14.02693000   20.20226000   14.36603000      0.271901   -0.62880700   -0.12378600
Se    0.17717000   22.75846000    4.60998000      0.061054   -0.66614000    0.78678000
Se   21.51670000    0.03299000   13.46527000      0.167259    0.28938400    0.45922300
Se   19.72817000    3.47451000    3.79768000      0.128385   -1.23330800   -0.05930700
Se   20.12374000    9.87684000   14.07343000      0.753087   -0.94588800    0.01458300
Se    2.39553000   11.79272000    5.63360000      0.341842   -0.20097200    0.04256300
Se   21.67354000   15.28532000   15.35201000     -0.622392   -0.18687400   -0.72884400
Se   22.44034000   19.16995000    4.02648000     -0.835197    0.08912000    0.38156700
Se   21.53171000   20.02948000   12.18784000     -0.671396   -0.65272600    0.14002200
Se   22.66858000    5.17845000    5.58503000      0.434056   -0.49491700    0.24567400
Se   20.74028000    6.35437000   15.29050000     -1.012219   -0.76357000    0.38365200
Se   22.67000000    9.91542000    2.34428000     -0.748478   -0.58058700   -0.22852300
Se    0.98375000   11.89352000   13.71518000      0.723522    0.83300200   -0.23727900
Se    1.93747000   13.90205000    1.08402000     -0.539206   -0.46329100    0.25400100
Se    1.93020000   22.59743000   12.98445000      0.178560    0.11924900    0.36451100
Se    4.38130000    0.12420000    2.91274000     -0.172814   -0.68718900   -0.39769900
Se    5.68883000   18.24414000   15.74037000      0.400230    1.73086600   -0.22535400
Se    8.70501000    5.18148000    7.89967000      0.488367    0.32650000    0.42591300
Se    7.79623000    4.84079000   12.96978000      0.413017    0.72705000   -0.50484400
Se    5.08507000    6.94155000    4.29816000     -0.299158    0.83057300    0.05903700
Se    7.72229000   11.11869000   12.40516000      0.071246    0.57836400   -0.45162600
Se    8.05395000   15.42418000    2.34427000     -1.203857    0.24742800    0.59196100
Se   12.01255000   14.68385000   13.61866000     -0.493432    0.35680900    0.57204800
Se    6.97539000   22.62580000    6.55063000      0.288272   -0.12207900   -0.41637200
Se    7.68683000   21.52874000   14.02051000      0.418750    0.42470000    0.20225600
Se   12.73039000    1.76882000    3.38067000      0.062367   -0.02766500    0.37181800
Se    9.53085000    1.60334000   12.35840000      0.462713    0.13886900   -0.03280600
Se   14.58121000   10.08312000    3.60664000      0.079322   -0.38407800   -0.05816900
Se   11.67267000   10.60003000   13.08253000      0.287272    0.03728900    0.93439400
Se   12.49109000   15.23568000    2.74050000     -0.762817    0.03936000    0.34151900
Se   13.57720000   17.70871000   13.90603000     -0.309054    0.43616900   -0.85340500
Se   11.66257000   19.51941000    2.98057000      0.275097    0.69324100    0.56354400
Se   14.05180000   22.96772000   14.87402000     -0.328106    0.01924800   -0.46636600
Se   18.19231000    3.77503000    0.94683000     -0.600500    0.40974200    0.28265800
Se   16.19724000    6.49908000   12.57320000      0.432383    0.60798700   -0.16218400
Se   18.21640000    8.86060000    4.78596000      0.262194    0.21773600   -0.19023100
Se   20.05806000   13.11285000   11.72384000      0.044876   -0.39239600    1.17201000
Se   22.43866000   15.62814000    3.29933000     -1.141077    0.18226100    0.75092000
Se   19.50488000   15.32249000    9.75438000     -0.688417    0.59310300   -0.47304900
Se   19.86500000   21.99293000    3.36561000     -0.712453   -0.83563000   -0.09568100
Se   16.89093000   22.24874000   11.12916000     -0.304676    0.00018600   -0.33333100
