384
23.00800000 23.00800000 19.32000000
Ge    5.84948000    4.68950000   10.97592000     -0.053891   -0.22224700   -1.05668200
Ge    4.04897000    7.52468000    1.40623000      0.976197    0.50507800    1.44061600
Ge    1.84801000   10.65437000    7.80674000     -1.277897    0.17004000   -0.44585000
Ge    5.85422000   10.37789000   18.41173000     -0.655322    0.70446200   -0.68933700
Ge    4.86650000   15.50435000   10.33872000     -0.131641   -0.67963900   -0.25456900
Ge    7.38686000   17.63069000    1.59208000      0.457104    0.00473200   -1.12348000
Ge    7.27836000   19.68080000    8.84148000      1.247769   -0.04943500   -1.14768900
Ge    4.99824000    2.42678000   18.79489000      0.072842    0.04873600   -0.30318000
Ge    9.17928000    6.06876000   11.09464000      0.670710   -0.37725200    0.23163600
Ge   10.42743000    6.38323000    2.13646000      1.053762   -1.69341800   -0.13000500
Ge   12.09094000   13.72326000   10.22880000     -0.829977   -0.84284000   -0.29533300
Ge   12.35066000   12.61904000   17.57279000     -0.893710    0.23176600    0.18204600
Ge    9.82222000   17.13880000    7.31879000     -0.120829   -0.78400700   -0.87303500
Ge   13.65549000   16.30042000    0.64063000      0.609501    0.50445600    0.30849100
Ge   10.75884000    2.47908000    9.71478000      0.091636   -0.67952500    0.32551100
Ge   15.90506000   21.56631000   18.48222000      0.460785   -1.03621300   -0.13840400
Ge   19.73147000    5.83315000   10.89450000     -0.410780   -0.73464300   -0.11420500
Ge   18.23745000    9.06243000   17.91893000      0.550189   -0.69611700   -0.10502900
Ge   21.81605000   13.93800000    9.47220000     -0.679854   -0.04084300    1.75298900
Ge   16.27354000   11.02283000   18.71506000     -0.171929   -0.76944600    0.62728900
Ge   14.05529000   17.20816000    7.88547000      0.506461    0.60815700   -0.34300600
Ge   18.88562000   14.33115000    1.13765000     -0.272773    0.02076400    0.16095600
Ge   19.61252000    0.64745000   10.13142000      0.406268   -0.09183400   -0.19793700
Ge   17.39035000    1.84833000   17.70683000      1.019559   -0.27150100    1.17099100
Ge    0.48324000    7.23360000   10.39903000      1.503803   -0.41410500   -0.52076400
Ge   21.96991000    2.95749000    0.33989000      0.464081    0.49328000    0.31578300
Ge    1.15044000   11.88461000   11.17530000     -0.288818   -0.37674500    0.18035700
Ge    0.06836000   11.24861000    0.11394000      0.765189    0.50084700    0.21362900
Ge   22.65053000   14.35151000    7.22227000     -0.384836    0.77518400   -1.64175100
Ge    0.86964000   15.93002000   16.32917000     -0.040830   -0.77671600    0.73343200
Ge   20.76231000   20.66171000    9.34202000     -0.275479   -0.07225800    0.47614200
Ge    3.51399000   21.22865000    0.53552000     -0.022783    0.16590700   -1.17828500
Ge    6.41650000    8.26681000    8.35862000     -1.046187    1.17531400    0.89324000
Ge    0.98465000    5.92482000   19.24639000     -0.192081   -0.22438000   -0.41461000
Ge   21.84288000    7.93487000    5.83773000      0.121667   -0.32432100   -0.32613000
Ge    2.99263000   13.35070000   15.93108000      1.172140   -0.62613500   -0.66924000
Ge    5.90889000   16.44768000    3.64748000     -0.493625   -0.53458700    0.24056600
Ge    1.98828000   19.28136000   18.31599000     -0.150752    0.81277000   -0.59945200
Ge    4.59202000   18.83095000    9.86607000     -1.154361   -0.35087900   -0.34893700
Ge    3.04219000    0.09506000   16.01023000     -0.829494   -0.31035500   -0.01959300
Ge    8.17676000    2.83072000    7.28505000     -0.351874   -0.32668200    0.09109100
Ge    8.38190000    3.45932000   19.12994000      0.092200   -0.23189400    0.25720800
Ge    7.42186000   12.51828000    3.87259000     -0.101351    0.93258200   -0.56309600
Ge    7.99761000    9.30772000    1.26563000     -0.395275   -1.26306600    1.19519100
Ge    5.74942000   15.93158000    6.43571000      0.131397    1.19470700   -0.19169800
Ge    9.09881000   14.82351000   17.98026000      0.455901    0.07895000   -0.00674400
Ge   10.08685000   22.49228000    5.85804000      0.700573   -0.10389500    0.56487400
Ge   10.16490000   21.48103000   14.02900000      0.874027    0.04620600   -0.58679700
Ge   13.11387000    5.96393000    9.30215000     -0.264316    0.17212200    0.11917400
Ge   14.24632000    6.35134000   17.88772000     -0.878191    0.90293800    0.36375700
Ge   12.86164000    9.89877000    8.58484000     -0.043400    0.03759500    0.57073100
Ge   15.77124000   13.31836000   15.12389000      0.040990   -0.04211100    0.11084100
Ge   14.25133000   17.38126000    4.35095000     -0.926116    0.22054000    0.61351800
Ge   13.44836000   18.74576000    1.76228000      0.699967   -0.15447400   -0.28054500
Ge   15.26784000   21.64768000    9.23611000     -0.991086   -0.50527400   -0.79170800
Ge   16.55645000    1.69832000   14.49672000     -0.058899    0.81907700    0.07604500
Ge   20.98907000    4.17444000    7.86263000     -0.022802   -0.53101200   -0.44742500
Ge   20.65966000    5.44988000   17.74524000     -0.659812   -0.50149800    1.93189800
Ge   16.04734000   10.67319000    7.90337000      0.166707    0.85404500    0.47991600
Ge   19.15947000   15.88033000   17.39309000     -0.313208   -0.48726800    0.41621500
Ge   18.96042000   16.40874000    4.21859000      0.381394    0.04213500   -0.12550500
Ge   20.57489000   17.66900000   16.18065000      0.894805    0.07448100   -0.15376000
Ge    0.03896000    2.21102000    4.37695000      0.571728    0.43516800   -0.44442400
Ge   19.87863000   22.68609000    0.22107000     -0.577957   -0.66208300   -0.29505200
Ge    5.42115000    3.15268000    6.57133000      0.102495    0.13163700    1.37882300
Ge    2.50769000    4.91971000   14.70708000      0.222183   -0.10534100   -0.03550200
Ge    2.24188000    5.18423000    4.85546000      0.542223    0.60883100   -0.16913800
Ge    2.57670000    9.45687000   14.13004000     -0.632783   -0.37252500    0.16393900
Ge    1.90547000   15.44932000    4.62004000     -0.099593   -0.25673000   -1.54893600
Ge    1.52025000   17.64930000   13.01744000     -1.463321    1.16927900   -0.61725100
Ge    1.05547000    2.41321000    6.74996000      0.510489   -0.03158600   -0.30672300
Ge    4.68013000   16.61139000   16.61761000     -0.330210   -0.47403900    1.00427300
Ge    8.90893000    3.39574000    3.50605000      0.807679    0.41509000    0.03508800
Ge   10.13803000    1.86040000   16.09874000      0.340630   -0.47067300    1.22616800
Ge    8.25415000    9.34531000    5.18552000      0.615532   -0.80032400    0.79364800
Ge   10.15892000    8.98159000   14.41136000     -1.277643   -1.19971700    0.13631000
Ge   11.44687000   13.62366000    5.74264000      0.546375    0.73338500    0.15090300
Ge   10.27623000   12.65673000   14.03595000      0.122062    0.37904900    1.02233400
Ge    6.77513000   21.34685000    2.95513000     -0.752806    0.60029500   -0.66868000
Ge    8.92267000   19.41997000   18.00883000      0.289161   -0.78482700   -0.47822300
Ge   13.34728000    1.53885000    6.03398000      0.783721   -0.64416100    1.01952100
Ge   10.27397000    5.21103000   14.06054000      0.444166    0.28868500    0.78663800
Ge   15.13433000    5.68325000    6.57089000      0.475411    0.51672100    0.50533700
Ge   13.57119000    9.96034000   14.38513000      0.259692   -0.64434900    0.59799300
Ge   14.81169000   13.14859000    4.79569000     -0.460709    0.26939200   -0.47852800
Ge   15.54770000   16.80548000   15.26917000      0.075397    0.56411700    1.53464200
Ge   10.41811000   17.41631000    2.97734000      0.054627   -0.23243200   -0.31965600
Ge   13.20015000   22.05388000   17.32679000     -0.613028    0.96793600   -0.40869500
Ge   17.48319000    5.68060000    4.30364000      1.043182   -0.68540000    0.46638200
Ge   21.40553000    2.24334000   11.93829000      0.623853   -0.56347300    0.04671800
Ge   19.27078000    8.77148000    7.21585000     -1.735988   -0.28221900    0.76285200
Ge   19.32741000   12.24129000   14.23553000     -0.100093    0.47268900   -0.02711300
Ge   22.76761000   14.74177000    0.90876000      0.104003    0.48702400    0.68994500
Ge   18.21877000   14.75505000   12.22143000     -0.389136   -0.18736700    0.17572100
Ge   20.35443000   20.64693000    5.66866000      0.100667   -0.31414900   -0.67074000
Ge    0.21134000   20.83948000   15.47105000     -1.011356   -0.19614000   -0.27381000
Ge    5.31787000    3.02042000    3.35693000      0.720566   -0.17452900   -0.25033900
Ge    6.08869000    4.50431000   16.50060000      0.339807    0.81258800   -0.18893000
Ge    3.58380000    9.87310000    4.43877000      0.438398   -0.75891500   -0.79253600
Ge    4.30350000    8.15759000   12.26258000      0.763781    0.33107500    0.71206000
Ge    5.68847000   14.23482000    0.30578000      0.486383    0.29294800   -0.71407200
Ge    3.37043000   14.32642000   13.34470000     -0.064853    0.30925300    0.23723800
Ge    4.31943000   22.42687000    5.23711000      0.077538    0.24298600    0.80256200
Ge    7.24931000   19.70090000   12.27578000      0.890939   -1.92962200    1.62127800
Ge   11.65607000    4.60044000    5.70379000     -0.153795    0.06290000   -0.54326900
Ge    7.54366000    1.17848000   13.93721000     -0.620696    0.29612500   -0.59759600
Ge   12.20829000   10.81481000    2.85585000     -0.103240   -0.41092400   -0.02360400
Ge   13.34451000    7.29064000   14.27098000     -0.277484   -0.15204600   -0.13182000
Ge   10.24695000   14.15748000    1.40668000      0.789887   -0.09656800   -0.09717800
Ge    9.26871000   16.25591000   11.58758000      0.480607    0.31494800   -1.01526100
Ge   11.31737000   22.14344000    1.08485000      1.180275    0.42783700   -0.27012600
Ge   11.87467000   18.74527000   11.75841000      0.358555   -0.68004600   -0.13048000
Ge   21.52035000   22.87599000   17.26749000     -0.707090   -0.38240400    1.50623500
Ge   14.71630000    4.78801000   11.86152000     -0.723893    0.28714100   -0.81226700
Ge   17.19121000    7.89748000    2.30417000     -0.314427    0.36994700   -0.53418500
Ge   16.15120000    7.63458000    9.96798000     -0.094312   -0.46372200   -0.41794300
Ge   17.88424000   11.61962000    3.73133000     -0.369385   -0.34046800   -0.15496300
Ge   19.11550000   14.78557000    7.35938000      1.873710    0.10260800   -0.45775700
Ge   18.18641000   18.70522000    2.24391000      0.085339   -0.14581400   -0.27759900
Ge   16.67022000   20.47477000   12.84150000     -0.406410   -0.85232900   -0.64051200
Ge    0.97797000    0.57580000    1.88168000     -0.090911   -0.20380800    0.68254400
Ge    0.76614000    0.76786000   10.40451000     -0.432613   -0.63416500    0.97035800
Ge   20.34175000    5.81244000    4.41995000     -0.822830   -0.70224000   -0.27270200
Ge   21.97640000   10.37614000   12.92357000      1.183632    1.04158900   -0.34113400
Ge   21.51275000   12.73357000    3.24422000     -0.104877    0.51933700    0.05022800
Ge   22.39896000   18.08166000   10.35799000      0.773667    1.90411000   -0.71034100
Ge    3.03001000   20.46652000    3.09200000      0.489489   -0.28516200    1.77786000
Ge   20.12696000   17.81510000   12.31791000     -0.475928    0.69017500    0.45343600
Se    0.41926000    1.02642000   18.81105000      0.298435   -0.63755200   -0.70657200
Se    1.46185000    3.15279000    9.96267000      0.568889   -0.19997900    1.76550700
Se   22.59601000    5.99353000    2.09478000      0.558936   -0.22657300    0.35386800
Se   22.74348000    8.16585000   12.69905000      0.206648   -1.04529200    0.69397100
Se    3.02805000   11.10789000   19.02166000      0.285158   -0.65800900   -0.43009200
Se    1.96191000   13.38236000    9.62408000     -0.357299    0.26429900    0.07225100
Se    2.80573000   17.78888000    3.72568000     -0.250880   -0.37974700    0.26779200
Se    0.93958000   20.41635000    9.79313000      0.063075   -0.51722900    0.04509200
Se    7.60622000    2.04383000    1.97945000     -0.788445   -0.10786000   -0.90702200
Se    5.61979000    1.86253000   11.66768000      0.943921   -0.60635500    0.37435100
Se    7.97240000    6.09898000    1.52397000      0.380718    0.30023400    0.31383700
Se   10.55336000    7.94541000   11.92993000     -0.488521   -0.13658500    0.56416700
Se    7.48859000   11.54382000    0.79813000      0.355322    1.24965300   -0.60030600
Se    5.76689000   14.96324000   13.42417000      0.163019    0.04325600    0.03313600
Se    5.20549000   19.77868000    1.62854000      0.053870   -0.88693200    0.30265500
Se    9.66001000   18.89140000   10.38152000     -0.354774   -0.27373500    0.30430600
Se   14.29109000    3.26042000    1.11838000      0.247364    0.39714200    0.31341400
Se   12.52320000    0.47934000   10.60733000      0.574284    1.16278500   -0.42850300
Se    9.21818000    7.78419000   19.06191000      0.666487    0.13347000   -0.56171500
Se    9.81305000    9.39709000    8.87936000     -0.374213    0.77835100   -0.74740200
Se   12.11013000   12.26657000    0.79108000      0.129236    0.30105800   -0.79816600
Se   13.14657000   11.44681000   10.75341000     -0.278505    0.09276900   -0.86427600
Se   15.95049000   14.32353000    0.84855000      0.166883    0.50473500   -0.36103600
Se   11.70096000   18.11038000    8.51012000      0.519848   -0.24436800   -0.00173100
Se   16.64892000    3.75136000    2.52004000     -1.143077   -0.62038400    1.70890000
Se   14.68763000    1.50239000   10.84905000     -1.010460   -0.21912800    0.11617600
Se   18.02570000    6.16550000   17.83224000      0.484835   -0.18504000    1.25596600
Se   21.24477000    7.81473000   10.64530000     -0.873968    1.02373400   -0.31170000
Se   18.25264000   10.44492000    0.78123000      0.496718    0.23107100    0.11906400
Se   17.52925000   15.73225000    6.04213000     -1.987490    0.43101100    0.11503200
Se   20.09075000   16.50390000    0.75535000     -0.476609    0.29733600   -0.05520800
Se   18.02778000   18.31019000   10.94234000      0.121595   -0.08226500    0.23028000
Se    3.96634000    4.88654000    2.31757000     -0.094321    0.51050800    0.16612100
Se    2.81082000    6.39831000   11.67314000      0.022604   -0.38997800   -0.40243700
Se    4.76897000   10.21388000    1.96013000     -1.210083   -0.14518900    0.26191000
Se    5.46308000   13.30641000   11.77064000     -0.177877   -0.09919900   -0.65469200
Se    4.42793000   14.24980000    3.42771000      0.570818    0.21541600    0.34440800
Se    2.96074000   16.93923000   11.12551000      0.620411   -0.26157900   -1.14688900
Se    4.44356000   22.77578000   18.24203000      0.277023    0.58461700   -0.23968800
Se    6.54286000   21.07430000   10.63838000     -1.336856    1.91150900   -1.50692400
Se   10.71521000    6.91446000    4.48577000     -0.053074   -0.15680200    0.39006700
Se    7.40355000    3.04568000   10.08918000      0.346956   -0.63625800   -0.05576700
Se   10.32719000   11.01446000   17.13514000      0.485946    0.41400000    0.08557400
Se    7.63540000   10.56077000    8.75110000      0.182657   -0.86611000    0.46484800
Se    9.93879000   17.56763000    0.31994000     -0.170803   -0.23924800   -0.23068300
Se   11.88239000   16.04342000   11.12972000     -0.821670    0.39156100    0.53765700
Se   14.19330000    0.39240000    2.00462000     -0.435602    0.00788700    0.28113900
Se   12.40875000   20.97195000   12.55945000     -1.109281    0.88364200   -0.49521200
Se   12.90025000    6.95172000    1.39151000     -0.856113    0.84722000   -0.67807200
Se   18.27862000    7.74586000   11.70321000      0.841632    0.09568800    0.23861800
Se   15.27639000    8.72937000    0.42735000      0.039935   -0.59056200   -0.02554100
Se   15.20208000   10.10815000   12.55555000      0.170419    0.18027000    0.45528200
Se   19.22487000   13.80252000    3.77535000     -0.598186    0.63164200   -0.37777500
Se   14.40198000   14.18042000    9.69582000      1.548288   -0.01637700   -0.25760000
Se   17.06063000    0.18131000    0.58426000      0.541505    0.65702700   -0.41216900
Se   14.43349000   19.11443000   10.05342000     -0.273661    0.34951600   -0.13826200
Se   21.34051000    0.84034000    2.10303000      0.507069   -0.09157400    0.01571700
Se   22.57129000    4.76683000   11.93213000      0.079689    1.43151700   -2.27705900
Se   20.35580000    6.64669000    1.99608000     -0.411457   -0.08171100   -0.02480100
Se   21.80886000   11.26483000   10.69754000      0.720534   -0.41491800   -0.89925600
Se   20.95570000   12.91488000    0.56978000      0.818784    0.08731800   -0.57276400
Se   22.03597000   16.18975000   11.69371000      0.011433   -1.47238000    0.68484300
Se    1.19245000   21.00883000    1.56909000     -0.756267    0.02917900   -0.04907700
Se   20.08340000   20.85106000   14.42045000      0.719041   -0.75841600   -0.97566400
Se    4.48353000    4.74901000    8.46001000      0.057329    0.06113200   -0.14531300
Se    0.15372000    5.43336000   16.35848000      0.356091    1.31415900   -0.29722400
Se    3.85674000   10.41039000    9.06496000      1.351042   -0.24874400   -0.07203900
Se    2.99137000    8.95745000   17.56819000     -0.012961    1.07555500    0.74324900
Se    3.90751000   18.33483000    7.05244000      0.704734    0.34694400    0.38686000
Se    0.02724000   18.08133000   15.40065000     -1.381781    0.44227000   -0.35871600
Se    4.32599000   22.47020000   12.60204000     -0.689587    0.30971500    0.79185500
Se    8.56757000   23.00210000   17.03161000      0.883721    0.57812300   -0.67759500
Se    6.59728000    5.14891000    4.40626000     -0.137665   -0.41191700   -0.18320200
Se    6.36541000    4.95297000   19.19491000     -0.562700   -0.65009900   -0.62985600
Se    6.08763000   10.74093000    5.16578000      0.266478   -0.40900900    0.11415600
Se    3.45307000    7.09383000   15.35751000      0.132663    0.26007000    0.13282500
Se    6.60510000   17.26832000    9.28003000      0.538872   -0.74260900    0.23824800
Se    6.93377000   16.18052000   18.25523000     -0.040887    0.46391700    0.78574800
Se    8.14876000   18.50583000    6.01592000     -0.066120    0.05824900    0.49027100
Se    7.20432000   21.82815000    0.21975000     -0.386810    0.39482500    0.17246500
Se   16.10118000    1.39260000    7.65996000     -0.228455   -0.49562700   -0.49465500
Se   12.79085000    4.46675000   15.42742000     -0.217393   -0.61133400    0.17893500
Se   13.66984000    8.29659000   10.47704000     -0.587168   -0.55566900    0.02712800
Se   14.04001000   11.17642000   16.57639000      0.041290   -0.05866400   -0.31251600
Se   13.88258000   15.31656000    6.02066000     -0.381769   -0.15504800    0.18665500
Se   14.17978000   16.10698000   17.55684000     -0.517822   -0.05492100   -0.86795700
Se   12.36797000   21.34062000    7.27007000     -0.321420    1.03303200   -0.82487700
Se   18.88784000   20.60539000   17.61641000     -0.801048    0.13824500    0.28457000
Se   18.95936000    2.94398000    9.36944000      0.321414    0.06099200    0.20087300
Se   20.26887000    2.42623000   18.03660000     -1.246827   -0.07763300   -0.55092900
Se   18.11098000   10.45433000    9.06117000      0.258027   -0.29431000    0.10032200
Se   17.63083000   11.28011000   16.01226000     -0.533406   -0.38719300    0.14227200
Se   15.63649000   16.31064000    9.58552000     -0.965110   -0.21919700   -0.23208400
Se   17.67040000   15.33676000   15.34900000      0.284305   -0.51565300    0.14603600
Se   18.70356000   18.08263000    8.71762000      0.039587    0.52214400    0.23489000
Se   20.58747000   20.27133000    1.58476000     -0.522762    0.95133700    0.17281500
Se    5.00089000    0.62436000    7.81859000     -0.008342    0.06813800   -0.18808600
Se    0.28728000    3.34287000   17.39736000      0.693617   -0.28073500    0.24439600
Se    6.95601000    6.75725000   10.32998000     -0.831807    1.73933800    0.33630200
Se    1.92467000    8.26629000    0.64726000     -0.816835    0.03302900   -1.40219600
Se    3.98970000   14.74700000    7.54622000      0.221104   -0.57993500    0.46703300
Se    5.46774000   14.15143000   16.86753000     -1.223904   -0.84796000    0.17160000
Se    3.12532000   20.75395000   10.41394000      0.364457    0.50531700    0.05318800
Se    0.16174000   16.62506000   18.80730000     -0.321464    0.18343900   -0.41490900
Se    9.02415000    0.27526000    8.95455000      0.264253    0.50185700    0.16175600
Se   10.93250000    3.79551000    2.05116000     -0.501731    1.30138500   -0.15931100
Se   12.21091000    4.37981000   11.07404000     -0.316024    0.51961200   -0.32152800
Se    6.03629000    8.03882000   19.13791000      0.321170   -0.18625900   -0.45786500
Se   10.72130000   13.50713000    8.09793000     -0.299555    0.15972300    1.07158500
Se    8.35833000   12.31200000   17.35699000     -0.114237   -0.27555500    0.45222000
Se    9.93876000   21.23491000    8.22271000      0.045316   -0.22709700    0.03187000
Se   11.90868000   15.39220000   16.82815000      0.481438   -0.28353100   -0.03375300
Se   17.14402000   20.50969000    7.92126000      0.800936   -0.39334200   -0.44712300
Se   15.28338000    4.31304000   18.66009000      0.380873   -0.69031400   -0.42634600
Se   15.10839000    4.65214000    8.92270000      0.130561    0.44070100    0.68358600
Se   11.53968000    8.88797000    0.47252000      0.681593   -0.58417100   -0.28363900
Se   16.47295000   12.41691000    9.96477000     -0.206312   -0.59271700   -0.63684000
Se   16.61604000   13.30578000   17.93493000      0.188324    1.04778800    0.43205500
Se   15.62809000   18.58709000    6.19096000     -0.718106   -0.26208700    0.61313100
Se   16.03349000   19.46485000    0.77193000      0.206774    0.07193300    0.03121500
Se   22.01395000   22.86679000    8.87806000     -0.901311    0.55382900   -0.43808400
Se   22.77971000    0.93424000   15.60132000      0.473254    0.07723100   -1.55727600
Se   20.53090000    6.65717000    8.14078000     -0.019692   -0.10699000    0.03953600
Se   20.86369000    8.29870000   17.99615000     -0.386763    1.13463800    0.43127300
Se   21.27538000    9.90562000    7.24672000      1.185102   -0.13755400    0.46247100
Se   22.00606000   10.38026000   17.33083000     -0.202881   -1.04613300   -0.81718300
Se   21.04035000   16.31324000    6.43914000     -0.398060   -1.25295500    0.23529500
Se   17.87023000   17.66030000   18.95684000      0.748229   -0.82903300    0.06433500
Se    2.31670000    1.07914000    8.45120000      0.442628    0.12574800    0.11534400
Se    4.13570000    3.24278000   15.74814000     -0.675776   -0.33268800    0.46961200
Se    1.17571000    8.08883000    6.98645000      0.291658    0.58234200    0.59352700
Se    0.54224000    8.90608000   15.73274000      0.387702    0.31142200   -0.03651900
Se    1.39546000   16.00270000    6.96779000      0.133611    0.25319500    0.74563500
Se    0.89254000   12.96258000   16.92755000      0.097614   -0.46175400    0.51196500
Se    0.99914000   18.35930000    5.39304000      0.748688    0.60526000    0.36682400
Se    2.48317000   20.24028000   15.83405000      1.377458    0.25297600    0.79968100
Se    7.22834000    1.27658000    4.91480000      0.420347   -0.43784400   -0.02624400
Se   11.91941000    1.15740000   18.46632000     -0.051293   -0.62059500   -0.54932600
Se    7.67531000    7.05845000    6.83201000      0.877726   -0.45022000   -1.57456200
Se    7.77002000    7.11139000   14.81073000     -0.146568   -0.10603300    0.11262300
Se    7.32073000   13.82217000    6.24241000      1.272149    0.25864900   -0.46432300
Se    7.79964000   16.90296000   15.14718000      0.330244   -0.16411400   -0.07215000
Se    5.50345000   20.11127000    6.25043000     -0.924631   -0.15866000    0.21620300
Se    9.14509000   14.64873000   15.37140000     -0.506733    1.24543700    0.37889900
Se   14.89951000   21.21094000    6.01255000     -0.286241   -0.02628300   -0.42459800
Se   15.19049000    1.37204000   16.62591000     -0.187964    0.34868100   -0.57709900
Se   12.20196000    6.56626000    7.02808000      0.119988    0.28263800    1.18090600
Se   11.30159000    7.07502000   15.87813000      0.257631    0.55982800   -0.76581500
Se   12.85338000   11.41411000    5.25170000      0.931775    0.23250300    0.44966000
Se   14.05098000   13.97711000   13.17359000      0.757867   -0.56198600    0.12742500
Se    9.97930000   15.52057000    5.28077000     -0.169064    0.89405100    0.71096800
Se   13.34576000   20.48565000   19.31015000     -1.073773    0.11249000    0.33153500
Se   20.97507000    1.67411000    5.39807000     -1.521883    0.84133400    0.11960700
Se   18.84101000   22.43385000   16.10923000      0.757714    0.52242800    1.14508700
Se   17.41492000    4.68188000    6.63720000      0.039497    0.34614400   -1.08740000
Se   17.91842000    6.51583000   15.61014000      0.156638    0.50231800   -1.20721200
Se   20.23658000   10.02266000    3.66244000     -0.308522    0.19437500    0.22445200
Se   16.77960000   12.57721000   12.84269000      0.672746    0.67760000   -0.08116400
Se   18.00794000   20.14892000    4.18252000      0.497723    0.75372600    1.34311500
Se   17.17926000   22.38609000   14.27204000      0.001351    0.21420700   -0.29278200
Se    3.27878000    6.96256000    6.85772000      0.225841   -0.93189700   -0.34241400
Se    3.92902000    4.42801000   12.51331000     -0.464158   -0.04951000    0.37728800
Se    1.87879000    7.57259000    3.05181000     -0.084646    0.00441600    1.06601000
Se    4.08935000   11.12631000   14.80631000      0.306643    0.83059900    0.71141500
Se    5.50485000   12.57536000    6.88878000     -1.262294   -0.31476100    0.67683700
Se    3.73431000   17.70208000   18.87317000      0.629056   -0.39837900   -0.73500700
Se    1.99184000   21.47917000    5.74838000     -0.135000    0.11471400   -0.12311100
Se    5.15839000   22.55951000   14.99319000      0.695761    0.15102000   -0.46191500
Se   10.80817000    2.48493000    6.95610000      0.549034   -0.18455400    0.04579600
Se    9.30790000    4.18470000   16.32045000      0.674965   -0.12825800   -0.75503600
Se   10.21098000   10.25598000    6.59078000     -0.307729   -0.55261000    0.04022600
Se    7.82947000   11.03029000   14.81062000      0.446337   -0.18925100   -1.57459700
Se    8.75864000   15.55910000    8.91688000     -0.106921   -0.14473700    0.33758700
Se   11.06186000   18.28804000   15.76867000      0.779985   -0.35657900    0.48001800
Se    8.34521000   19.11631000    3.57864000      0.192996   -0.28760200    0.26227500
Se   10.66157000   21.45303000   16.41704000     -0.671232   -0.38583700    0.92024400
Se   14.09228000    3.85890000    5.27009000     -0.423408    0.00828900   -0.38940400
Se   18.63374000    2.90493000   14.84453000     -0.101570    0.13201700   -0.16236500
Se   15.01719000    8.69078000    7.25594000      0.018307   -0.25898800   -0.23873900
Se   16.57565000    9.15076000   14.28262000     -0.041054    0.00180100    0.27913000
Se   16.61060000   12.28992000    6.19044000      0.647724    0.07812900    0.00513700
Se   15.70664000   19.38340000   15.90777000      0.973538   -0.56652700    0.86717200
Se   16.22286000    0.28252000    5.52604000     -0.741516    0.20744800    0.83143800
Se   19.25616000    3.29458000   12.25172000     -1.538101   -0.32784300    0.51085900
Se    0.80949000    4.46926000    8.15310000     -0.783022    0.45858300   -0.72431000
Se   22.85553000    3.38337000   13.66580000      0.232575   -1.06095300    1.24789000
Se   20.14433000   12.46386000    7.26482000     -0.389683    0.35424000    0.18187800
Se   20.80607000   13.30131000   16.36269000     -0.716774   -0.37169400   -0.02145300
Se   22.12016000   12.26818000    5.82127000      0.743241    1.00196200    0.20308300
Se   18.81441000   18.20935000   14.50619000      0.515216    0.66514100   -0.23848600
Se   22.11300000   19.30579000    7.84205000     -0.087424   -0.30266200   -0.68076000
Se   22.51503000   20.56797000   17.88137000     -0.261732    0.20442500    0.04307800
Se    3.38589000    2.60232000    5.31424000     -1.011779    0.24750500   -0.00323200
Se    7.00190000    2.22852000   17.03227000     -0.587994   -0.51900100    1.13751100
Se    2.86009000    4.06894000    0.44511000     -0.836553   -0.23675800   -0.63742500
Se    2.71763000    9.74689000   11.06133000     -0.558197    0.15617000   -0.50171000
Se    0.91426000   11.80798000    2.84048000      1.407987    0.67739800    0.04551400
Se    2.91430000   16.87865000   14.64984000      0.973911   -1.25356000    0.92276100
Se    4.14694000   15.85356000    1.56086000     -0.220267    0.15322800    0.04963800
Se    4.96082000   19.40808000   13.48444000      0.181513   -0.33832700    0.13962000
Se   10.41162000    1.25213000    3.69855000     -0.097942   -1.07576700   -0.00752500
Se   11.21619000    0.94072000   13.89678000      0.164258   -0.34074000    0.41662200
Se   10.07188000    9.18848000    3.34324000     -0.349944    0.22428600    0.16023100
Se    7.48993000    8.76522000   16.65490000      0.079029    0.19509600    0.14909000
Se   10.09711000   12.70886000    3.44117000     -0.496300   -0.37012900    0.42183700
Se    9.44023000   13.27565000   11.88822000     -0.381582   -0.25103400   -0.80244800
Se    9.16699000   20.66502000    0.76368000      0.357646    0.12364700    0.52659000
Se    9.92248000   18.09906000   13.78485000     -0.624651    0.26599200   -0.25056000
Se   19.24827000   22.03754000    7.88619000     -0.924040    0.26744500   -0.23201000
Se   14.55483000    2.71852000   13.06115000      0.223802   -1.19000500    0.29853100
Se   15.45272000    6.87235000    3.85704000     -0.695721    0.21401600   -0.18074500
Se   14.87693000    5.57696000   15.51977000      0.668797    0.31908300   -0.33003400
Se   15.41296000   12.28987000    2.09188000      0.172274    0.00185700    0.30498200
Se   16.18961000   17.04005000   13.05607000     -0.694807    0.27088300   -1.43481700
Se   16.16405000   16.73519000    3.23412000      1.591352   -0.59208400   -1.07578400
Se   13.93307000   20.23723000   14.37708000      0.894555   -0.26788700    0.50355700
Se    0.17663000   22.64716000    4.72776000      0.049478   -0.61713600    0.30928800
Se   21.66090000    0.16247000   13.46619000     -0.214900   -0.61003800    0.54273300
Se   19.66852000    3.23063000    3.75624000      0.621074   -0.12257300    0.79035600
Se   20.12429000    9.92243000   14.07403000     -1.253109   -0.39193700    0.89537500
Se    2.44283000   11.71722000    5.50600000     -0.039432    0.25586700    0.56069800
Se   21.74741000   14.95113000   15.10282000     -0.043209    1.41367800   -0.47197800
Se   22.47901000   19.14051000    3.96726000     -1.239629    0.33123700   -0.54679800
Se   21.46270000   20.04689000   12.15859000     -0.318160   -0.85878400    0.07353200
Se   22.79751000    5.15341000    5.73219000     -0.348536   -0.21823400   -0.64139200
Se   20.86379000    6.20112000   15.59620000     -0.484244   -0.14401100   -2.12573100
Se   22.43461000   10.06740000    2.45849000     -0.139401   -1.15709300   -0.45163400
Se    0.78255000   11.87327000   13.59804000     -0.048033    0.04410500   -0.00550900
Se    1.97893000   13.89336000    1.23180000     -0.206078   -0.68267400    0.09606600
Se    2.00948000   22.84484000   13.05529000      0.438192   -0.05143700    0.08459900
Se    4.30873000   22.86432000    2.63696000     -0.114186   -0.10850600   -0.24252000
Se    5.65509000   18.64111000   15.70910000      0.782367    0.88902300   -0.85962400
Se    8.67784000    5.16995000    7.96946000      0.520677   -0.06540700    0.12038000
Se    7.90133000    5.04860000   13.09307000     -0.153238    0.17720200   -0.44948000
Se    4.92222000    6.92838000    4.39905000     -0.000239   -0.21015000    0.18564900
Se    7.78665000   11.21533000   12.34156000      0.003980    0.34556800    0.72574600
Se    7.99517000   15.35945000    2.44474000     -0.546359   -0.15772900    0.29958500
Se   11.98982000   14.75648000   13.69428000     -0.623117    0.44131600    0.07049100
Se    6.87995000   22.60641000    6.63043000      0.303092    0.14868200   -0.02332000
Se    7.69592000   21.53380000   13.93199000      0.242058    0.34913000    0.28581400
Se   12.84120000    1.69048000    3.47842000      0.154838   -0.14228800   -0.38991900
Se    9.59399000    1.69429000   12.39944000     -0.651589    0.48419300   -0.56414900
Se   14.56134000   10.17614000    3.85410000      0.021531   -0.55796400   -0.38284400
Se   11.51344000   10.65911000   13.26618000      0.605000    0.23164700   -0.83831000
Se   12.60901000   15.36141000    2.47835000     -1.308198   -0.30837600    0.67376200
Se   13.53606000   17.79644000   14.09107000     -0.720020   -0.04012100   -1.04745800
Se   11.68769000   19.52487000    3.19388000      0.181676    0.67241900    0.26837000
Se   14.06906000   23.00564000   14.85007000     -0.926908   -0.29638600    0.13859300
Se   18.07521000    3.57840000    0.87293000      1.214143    0.34279900   -1.35273400
Se   16.26583000    6.57363000   12.48716000      0.178842    0.34167100   -0.07309400
Se   18.35735000    8.69023000    4.89830000      0.014071    0.12449200   -0.14400900
Se   19.87372000   12.94283000   11.71672000     -0.207287    0.64437600    0.76897700
Se   22.41344000   15.71782000    3.27740000     -0.067495   -0.90385500   -0.64851100
Se   19.37646000   15.34255000    9.62451000      0.092017    0.09689500    0.28751700
Se   19.94935000   22.06443000    3.22944000     -0.443158   -1.07034800   -0.06957200
Se   16.84732000   22.02851000   10.93431000      1.096026    0.54107500    1.36080000
