384
23.00800000 23.00800000 19.32000000
Ge    5.81323000    4.81450000   10.92399000     -0.129106   -0.35491700   -1.19368300
Ge    3.84134000    7.72622000    1.44079000      1.660189    0.31512200    1.28991300
Ge    1.87310000   10.60424000    7.75453000     -0.649289    0.15333600   -0.29312700
Ge    5.94019000   10.37083000   18.25909000     -0.203796    0.86347200   -0.52640600
Ge    4.86319000   15.57140000   10.29020000      0.640548   -1.00051800   -0.58440400
Ge    7.36594000   17.47541000    1.50846000      0.313266    0.73692000   -0.81226200
Ge    7.12184000   19.63966000    8.72764000      0.737239    0.90910900   -0.99741100
Ge    4.94314000    2.27796000   18.90969000      0.386443    0.94977900   -0.20158300
Ge    9.23598000    5.99589000   11.21886000      0.172173    0.31622000   -1.00951100
Ge   10.37626000    6.46572000    2.42876000      1.305204   -1.42642300   -1.22108500
Ge   12.06156000   13.58962000   10.17087000     -0.120100    0.33425900    0.31709400
Ge   12.35401000   12.66187000   17.60378000     -0.455409   -0.52972400   -0.20751500
Ge    9.76695000   16.95135000    7.23446000      0.994641    0.99977500   -0.02716400
Ge   13.82150000   16.48835000    0.56545000      0.163533   -0.13787900    1.09953600
Ge   10.64146000    2.55433000    9.71341000     -0.121353   -0.92927400    0.24059800
Ge   15.98156000   21.50851000   18.32334000      0.080006   -1.21009500   -0.46814800
Ge   19.82750000    5.73328000   10.94462000     -0.127023    0.22407800    0.01262000
Ge   18.26481000    8.88775000   17.94552000      0.190676   -0.06296900    0.18094500
Ge   21.92244000   13.95246000    9.59945000     -0.190060    0.65274400    0.13311900
Ge   16.20140000   11.12371000   18.72332000     -0.040918   -0.43118600    0.70461300
Ge   14.04384000   17.32178000    7.75690000      0.954846   -0.09338400    0.22499600
Ge   18.85317000   14.28025000    1.02154000     -0.104660    0.73454100    0.11944600
Ge   19.51743000    0.63864000   10.04254000      0.614078   -0.25642200   -0.18749800
Ge   17.73264000    1.87080000   17.67607000     -0.117753   -0.16255400    0.62432500
Ge    0.64116000    7.23250000   10.43037000     -0.034764    0.08159600    0.06846100
Ge   22.01661000    2.99050000    0.37789000      1.151112    0.14291500    0.26909200
Ge    1.07944000   11.99866000   11.19446000      0.891610   -0.92296300    1.02036700
Ge    0.13243000   11.33062000    0.16855000      0.190450    0.16588200    0.53201200
Ge   22.56480000   14.59254000    7.09480000     -0.803822   -1.02340000    0.37574000
Ge    0.87994000   15.80948000   16.29674000     -0.566534   -0.22843300    0.45310800
Ge   20.80101000   20.76615000    9.30877000     -0.757229    0.50987400    0.64313700
Ge    3.47001000   21.29534000    0.45311000     -0.013911    0.04983700   -1.46702900
Ge    6.35780000    8.30364000    8.47812000     -0.660735    1.14136600   -0.49183600
Ge    1.05674000    5.94490000   19.25949000     -0.431344   -0.91463100   -1.16894900
Ge   21.88154000    7.92948000    5.82060000     -0.012161   -0.18309500   -0.14821000
Ge    3.14291000   13.18714000   16.00385000      0.591083   -0.53182100   -0.43901000
Ge    5.83184000   16.33230000    3.51025000     -0.858884   -0.19793500    0.75995000
Ge    2.09538000   19.36755000   18.34583000     -0.529040    0.57745300   -0.87075200
Ge    4.40956000   18.82095000    9.71395000      0.304687   -1.02629900   -0.81287700
Ge    2.92130000    0.27754000   16.04005000      0.251277   -0.33965000   -0.70081800
Ge    8.14570000    2.77148000    7.22896000      0.096326   -0.02719000    0.40870900
Ge    8.43163000    3.28758000   19.15967000     -0.672733    0.37942500    0.06388800
Ge    7.49585000   12.61909000    3.90224000     -0.453749    0.39526900   -0.33022900
Ge    7.95479000    9.24468000    1.22559000     -0.685599   -0.00114000    1.48471500
Ge    5.57971000   15.99721000    6.46381000      1.010786    1.30773200   -0.65798800
Ge    9.31592000   15.03947000   18.23863000     -0.343812    0.31097700   -0.30947300
Ge   10.20151000   22.46972000    5.78692000      0.589157   -0.19617400    0.46457700
Ge   10.25312000   21.54975000   14.06343000      0.193756   -0.03629400   -0.54753800
Ge   13.15451000    5.96948000    9.36297000     -0.960340    0.01856500    0.07073000
Ge   14.19445000    6.38875000   17.94325000     -0.840122    0.97954400    0.29220500
Ge   12.84197000    9.82894000    8.42786000      0.157230   -0.09167700    0.72409700
Ge   15.78558000   13.39337000   15.08276000     -0.693851   -0.76322500    0.13800800
Ge   14.19349000   17.31283000    4.22763000     -0.176070    0.27690800    0.18854500
Ge   13.47990000   18.86602000    1.69059000      0.143220   -0.21129200    1.25267000
Ge   15.25456000   21.61282000    9.36561000     -1.007833   -0.59948500   -1.37773200
Ge   16.54571000    1.66639000   14.52384000      0.145421    2.52842200   -0.83312700
Ge   21.06411000    4.22112000    8.03333000      0.095966   -0.56151000   -0.51104400
Ge   20.74777000    5.35868000   17.95965000     -0.445911   -0.00743900    0.12984700
Ge   15.99698000   10.69809000    8.06443000     -0.637006    0.56548500   -0.40839800
Ge   18.98309000   15.82470000   17.41247000      0.525835   -0.15635200    0.51033100
Ge   18.91859000   16.43311000    4.09704000     -0.020357   -0.21563100    0.17573600
Ge   20.69205000   17.67885000   16.23518000      0.297467   -0.28758400   -0.01677000
Ge    0.05006000    2.18951000    4.38150000     -0.457674   -0.19988200   -0.45296300
Ge   19.76603000   22.84370000   19.31558000     -0.085631   -0.54337200    0.57647700
Ge    5.47395000    3.19477000    6.70143000     -0.263447    0.01863700    0.73894600
Ge    2.56689000    4.96717000   14.48764000     -0.214346   -0.07635700    0.97279900
Ge    2.40218000    5.06778000    4.83820000      0.470542    0.73905200   -0.23965900
Ge    2.38421000    9.47441000   14.09689000     -1.188217   -1.25848200   -0.39856000
Ge    2.03151000   15.27755000    4.56913000     -0.251559    0.04262300   -1.32053800
Ge    1.40108000   17.62843000   12.99769000     -0.915578    0.78256500   -0.14086400
Ge    0.90214000    2.29239000    6.74619000      0.213194    0.78337400    0.12785800
Ge    4.66635000   16.63335000   16.53632000      0.454467    0.71488500    0.64691300
Ge    9.04023000    3.43746000    3.49921000     -0.740186    0.13627900    0.36665000
Ge    9.95975000    1.87932000   16.28898000      1.505667   -1.62615200   -0.19113900
Ge    8.32775000    9.25752000    5.27106000      0.316892   -0.38338700    0.67103500
Ge   10.01988000    8.99389000   14.51828000     -0.850089   -0.46006300   -0.37866600
Ge   11.54344000   13.60428000    5.90328000      0.984820    0.66551200   -1.36797400
Ge   10.14158000   12.79443000   13.96964000      1.157003   -0.62027400    1.03185500
Ge    6.96044000   21.52979000    2.92555000     -0.683867    0.13757000   -0.55349300
Ge    8.76820000   19.48196000   18.07962000     -0.014631   -1.75552000   -1.92126400
Ge   13.35018000    1.58190000    6.14696000      0.801238   -0.27900200    0.65548300
Ge   10.29993000    5.24251000   13.91816000      1.086815   -0.04412300    0.98025600
Ge   15.17521000    5.73098000    6.69544000     -1.277376    0.61472400   -0.44768600
Ge   13.51008000    9.89385000   14.21775000      0.708613    0.16450200    0.96979500
Ge   14.93353000   13.29981000    5.00067000     -0.723551   -1.06050800   -1.66210600
Ge   15.55805000   16.86270000   15.42369000     -0.048474    1.25771600   -0.76826100
Ge   10.36061000   17.37925000    2.89308000      0.550703    0.48852100    0.14469900
Ge   13.09983000   21.99679000   17.45550000     -0.210751    1.38863200   -1.18076200
Ge   17.59858000    5.55273000    4.25624000     -0.180495   -0.02966400    0.44438600
Ge   21.48644000    2.06866000   12.05263000     -0.383365    0.30924600   -0.77123600
Ge   19.13007000    8.73360000    7.28437000     -0.483090    0.21025100    0.79448200
Ge   19.27123000   12.46836000   14.18000000      0.296485   -1.14733200    1.20730100
Ge   22.87229000   14.68867000    0.78968000     -0.752545    1.22002100    0.97889400
Ge   18.21773000   14.78598000   12.24267000     -0.251731    0.26468900   -0.04648700
Ge   20.43535000   20.58412000    5.57083000      0.477804   -0.24393300   -0.59032000
Ge    0.18199000   20.71363000   15.43160000     -1.208585    0.60915100   -0.39139000
Ge    5.34854000    2.94703000    3.50000000      0.294198    0.32086500   -0.81942500
Ge    6.10084000    4.46512000   16.45973000     -0.211048    1.81027400    0.02328100
Ge    3.54301000    9.83446000    4.30863000      0.429519   -0.64794900   -0.55272700
Ge    4.30807000    8.18115000   12.34294000      0.442418    0.53253400    0.74680000
Ge    5.78755000   14.15184000    0.34033000     -0.125798    0.24534000   -0.15009700
Ge    3.45060000   14.20126000   13.45050000     -0.612055    0.07254100    0.18234000
Ge    4.26911000   22.54475000    5.32039000      0.601280    0.40083800    0.37026400
Ge    7.38061000   19.54050000   12.22779000     -0.444271    0.14966800    0.30960400
Ge   11.53248000    4.68342000    5.67068000      0.361182   -0.36218300   -0.23985600
Ge    7.60012000    1.20389000   14.02242000     -0.688293    0.05442600   -0.78546200
Ge   12.20806000   10.76432000    2.93887000      0.048589   -0.27655900    0.38742700
Ge   13.33455000    7.32050000   14.28241000      0.078228   -0.68914800   -0.07272200
Ge   10.30849000   14.12265000    1.35418000      1.045322   -0.22723200    0.03800200
Ge    9.23788000   16.36729000   11.31594000      0.541612    0.19679000   -0.23337600
Ge   11.15791000   22.11596000    0.87903000      1.869506    0.84709400    0.21491700
Ge   11.79736000   18.82590000   11.71922000      0.462572   -0.81756000    0.07034100
Ge   21.43423000   22.61153000   17.34992000      0.811465    0.67073900    0.20013000
Ge   14.53512000    4.80557000   11.85814000      0.612826    0.07954400    0.26985900
Ge   17.06892000    7.88098000    2.37874000     -0.360606    0.35513200   -0.79734600
Ge   15.94342000    7.55045000    9.89265000      1.936544   -0.79718700   -0.70795700
Ge   17.79548000   11.54843000    3.74751000     -0.419939    0.14801200   -0.50301400
Ge   19.05122000   14.75518000    7.23665000      0.651895    0.71977400   -0.34814600
Ge   18.15493000   18.71865000    2.16163000     -0.046910    0.16905500   -0.22438500
Ge   16.58654000   20.32124000   12.81062000     -0.160315    0.09894100    0.05257600
Ge    1.18999000    0.57255000    1.89914000     -0.589928   -0.21978300    0.12084800
Ge    0.74839000    0.73238000   10.34842000     -0.989323   -0.40733200    0.70176100
Ge   20.31594000    5.77342000    4.32699000     -0.553934   -0.70436100   -0.04566900
Ge   21.78932000   10.44499000   12.66446000     -0.076683   -0.21643500    1.81561500
Ge   21.50096000   12.67211000    3.37314000      0.400653    0.53086100   -0.36316400
Ge   22.54836000   18.28807000   10.33461000      0.254932    0.70381900   -0.20564100
Ge    3.18378000   20.43780000    3.07714000     -0.846653   -0.31068300    1.65070800
Ge   20.19806000   18.06938000   12.44078000     -1.607662   -1.95662600    0.14189800
Se    0.43386000    0.96240000   18.71058000      0.344256   -0.31600900    0.25200400
Se    1.47826000    3.13792000    9.95498000      0.254699   -0.33458600    0.91341500
Se   22.57498000    5.93569000    1.98670000      1.541223   -0.75700800    0.74678600
Se   22.67767000    8.24851000   12.84021000      0.108890   -0.84765000   -0.70378000
Se    3.04441000   11.03567000   18.84879000      0.701207    2.98659900    1.87620300
Se    1.82465000   13.42316000    9.68615000      0.223136    1.20679300   -0.73118100
Se    2.90968000   17.77632000    3.72264000     -0.032251   -0.73138200   -0.44579200
Se    1.04705000   20.42982000    9.80958000     -1.772763   -0.38284200   -0.83112200
Se    7.62444000    2.03007000    1.99058000     -0.548110   -0.02192900   -0.71835100
Se    5.53895000    1.84594000   11.73958000      0.895693   -0.34739200    0.55611200
Se    8.09916000    6.36861000    1.59643000      0.208521   -0.17081600    0.20474500
Se   10.44227000    7.98395000   11.87059000     -0.198755    0.00533000    0.71558900
Se    7.40018000   11.61823000    0.73969000      0.360864    0.27142200   -0.75251000
Se    5.73187000   14.92846000   13.57864000      0.636859   -0.29489000   -0.37793500
Se    5.14942000   19.98823000    1.67947000      1.249616   -2.28881300   -0.33719700
Se    9.61291000   18.89239000   10.47292000     -0.169275    0.16067100   -0.02186100
Se   14.45713000    3.36132000    1.26133000      0.039149    0.57299800   -0.58935900
Se   12.51085000    0.49768000   10.79132000     -0.421477    0.74106100   -0.87585700
Se    9.23024000    7.92529000   18.99153000      0.910035   -0.26202900   -0.91522900
Se    9.87919000    9.35064000    8.81132000     -0.477642    0.71494900   -0.18556100
Se   12.19921000   12.23062000    0.83212000     -0.060454    0.45788400   -1.20021200
Se   12.95522000   11.47241000   10.68207000      0.229620   -0.96178500   -0.49498100
Se   15.92688000   14.34127000    0.77035000     -0.052802    0.19405400    0.16324900
Se   11.86680000   18.11549000    8.60375000     -0.605591   -0.56855400   -0.54084300
Se   16.47146000    3.70049000    2.49160000      0.711529   -0.64705400    0.03575700
Se   14.64691000    1.30230000   10.77439000     -0.231065    0.31004800    0.36324800
Se   18.17878000    5.98995000   17.89465000      0.396988    0.08654100    1.51373800
Se   21.26240000    7.93902000   10.55318000      0.058991    0.24027900    0.09725800
Se   18.18031000   10.45712000    0.88783000      0.274887    0.07241300   -0.48441700
Se   17.28817000   15.66693000    5.86986000      0.146195    0.13494800    0.17323500
Se   20.21882000   16.64878000    0.67701000     -1.129122    0.02944900   -0.04718300
Se   17.98228000   18.34050000   11.00167000      0.464090   -0.52979800    0.16374900
Se    3.81093000    4.88404000    2.30032000      0.288619   -0.32177500    0.18935400
Se    2.79863000    6.45228000   11.73666000      0.317959   -0.78443500   -0.34696500
Se    4.55870000   10.31055000    1.93310000     -0.717751   -0.19344000    0.38720500
Se    5.48026000   13.33544000   11.78403000     -0.145284    0.30476000   -0.28960000
Se    4.63386000   14.05323000    3.46814000      0.217524    0.57036600   -0.03845100
Se    3.11025000   16.97740000   11.06225000     -0.154489    0.14157500   -0.51090400
Se    4.41169000   22.78190000   18.12004000      0.447144    0.15880700   -0.33604600
Se    6.39048000   21.08597000   10.56400000     -0.051067    0.25130800   -0.16547000
Se   10.68342000    6.92396000    4.66186000     -0.041277    0.12331400    1.21585900
Se    7.39041000    3.02892000   10.30472000      0.073486   -0.40239000   -0.14179000
Se   10.35609000   10.94290000   17.05281000     -0.171848    1.01278500    0.39659200
Se    7.52780000   10.59068000    8.76235000      0.545632   -0.85231700    0.28112200
Se   10.05578000   17.58939000    0.26466000     -0.447309   -0.18925700   -0.47619000
Se   11.89629000   16.06781000   11.06081000     -0.459218    0.24207000    0.48091600
Se   14.14265000    0.51882000    1.87487000     -0.110736   -0.45470600    0.12656500
Se   12.37967000   21.09295000   12.55347000     -0.597163    0.19517700   -0.00927500
Se   12.76084000    7.01973000    1.36399000     -0.937666    0.92530500   -0.42979700
Se   18.41119000    7.80571000   11.68979000      0.443701   -0.77689100    0.07461000
Se   15.32285000    8.70565000    0.50663000      0.074797   -0.70748300    0.02514500
Se   15.22205000   10.25648000   12.51601000      0.112539   -0.40135600    0.91390400
Se   19.29454000   13.83233000    3.57745000     -1.488101    0.55578300    0.02672000
Se   14.68569000   14.11369000    9.68261000     -0.093361   -0.29067500   -0.14329800
Se   17.15835000    0.03729000    0.37574000      0.741088    1.29975900    0.42435200
Se   14.48314000   19.16035000   10.16404000     -0.139363    0.50168700   -0.02870200
Se   21.45675000    0.76376000    2.02666000      0.414900   -0.05337300    0.12767400
Se   22.57344000    5.01674000   11.90915000     -0.047494   -0.01322400   -0.81377200
Se   20.44129000    6.64129000    1.95456000     -1.557641    0.41396000   -0.16916600
Se   21.98092000   11.36052000   10.53035000     -0.839740   -0.75080600   -2.02041100
Se   20.98712000   13.02771000    0.53705000      1.248437   -0.52807200   -0.62821300
Se   21.96350000   16.22884000   11.82088000     -0.023504   -0.40035800    0.32562600
Se    1.23160000   21.02727000    1.40481000     -0.552128   -0.10401400    0.73104500
Se   20.30774000   20.69729000   14.31974000     -0.428514    0.04237100    0.26445500
Se    4.47966000    4.73602000    8.55822000      0.016688    0.01665000   -0.08896400
Se    0.21119000    5.49153000   16.25858000      0.391404    0.31488400    0.06156200
Se    3.95578000   10.11484000    9.03246000      0.589133    0.25491600   -0.52774500
Se    2.72167000    9.29320000   17.67840000     -0.194634   -2.71425500   -1.81304800
Se    3.78189000   18.45262000    7.03936000      0.542601   -0.19286000    0.58665100
Se    0.06772000   18.23505000   15.28691000     -1.110274   -1.05538500   -0.17870400
Se    4.26441000   22.51823000   12.67842000      0.685568   -0.00885800    0.84539700
Se    8.67117000   22.90139000   17.05110000     -0.009926    0.21344600   -0.18600300
Se    6.61007000    5.06315000    4.38658000     -0.253226    0.08003200   -0.02501300
Se    6.19393000    4.70955000   19.05989000      0.425848   -0.37476600   -0.28141200
Se    6.08791000   10.62071000    5.17027000      0.450798    0.02029900    0.14007200
Se    3.48911000    7.02120000   15.27345000      0.270103    0.62808100    0.10253200
Se    6.86475000   17.34077000    9.35966000     -0.969051   -1.36965500    0.61603600
Se    6.72495000   16.12691000   18.36102000      1.462819    0.39341000    0.43932300
Se    8.13336000   18.49559000    6.22692000      0.279834    0.11537200    0.13770400
Se    7.06599000   21.80581000    0.15581000      0.140065    0.26880200   -0.10673500
Se   16.20534000    1.41766000    7.59495000     -0.373233   -0.34709900   -0.42773100
Se   12.87093000    4.45674000   15.44475000     -1.025908   -0.97691000   -0.00273000
Se   13.75795000    8.16080000   10.48466000     -2.337728    0.42576600    0.41650000
Se   14.09916000   11.16730000   16.46265000     -0.372486    0.26823000   -0.29752000
Se   14.02448000   15.26786000    5.88846000     -1.404750    0.98168700    1.38225700
Se   14.11930000   16.13341000   17.42065000      0.320784    0.10175200   -0.11587000
Se   12.41004000   21.24264000    7.34734000     -0.511266    0.98467100   -0.63017000
Se   18.97023000   20.65759000   17.67495000     -0.928085   -1.32453000    1.04876800
Se   18.94487000    2.95860000    9.38062000      0.159694    0.26327300    0.34066600
Se   20.22965000    2.39155000   18.22597000     -0.947728    0.30679700   -1.04590900
Se   18.08677000   10.47261000    9.03132000      1.038030   -0.59192700    0.16196900
Se   17.70212000   11.43064000   16.04619000     -0.638118   -0.67302800    0.45299700
Se   15.53945000   16.25696000    9.65696000     -0.539708    0.59375200   -0.49181400
Se   17.48873000   15.30697000   15.47929000      0.763483    0.14715000   -0.69180900
Se   18.79055000   18.01869000    8.76918000     -0.261539    0.20767900    0.56754100
Se   20.44617000   20.38854000    1.66281000      0.411446   -1.09674100   -1.49126200
Se    4.96122000    0.77016000    7.84080000      0.194839   -0.53663100   -0.27922600
Se    0.45013000    3.24397000   17.35879000     -0.100416    0.54275800    0.33720800
Se    6.87261000    6.93838000   10.36359000      0.191425    0.66049700    1.42274300
Se    1.73392000    8.26545000    0.52798000     -1.262835    0.77181100   -0.54216600
Se    4.00969000   14.73734000    7.54402000     -0.278799   -1.13853200    1.04472700
Se    5.40957000   14.12577000   16.95855000     -0.869087   -1.01839800    0.08421000
Se    3.10943000   20.60150000   10.54619000      1.722662    1.33966200    1.18101100
Se    0.11774000   16.75209000   18.86354000     -0.169192   -0.47137500   -0.45123900
Se    9.03498000    0.27169000    9.04616000      0.608063    0.18333600   -0.09960500
Se   10.99785000    3.77737000    2.24554000      0.368266    2.04458500   -0.93025500
Se   12.19303000    4.47379000   11.27399000     -0.611975    0.40862900   -0.75303800
Se    6.03752000    8.07914000   19.14440000     -0.180628   -0.47041200   -0.03822400
Se   10.85996000   13.39228000    8.08456000     -0.953547   -0.00690300    1.75876500
Se    8.29872000   12.35314000   17.28892000      0.654239   -0.21017700    0.63557200
Se   10.03349000   21.14825000    8.15305000     -0.230332    0.66958200    0.20293900
Se   11.98557000   15.45658000   16.81320000     -0.688768   -0.72591100   -0.26138100
Se   17.34838000   20.43052000    7.95825000      0.246501   -0.44133900   -0.16092600
Se   15.29265000    4.38019000   18.55186000     -0.154923   -0.93890000    0.20378700
Se   15.15151000    4.66305000    9.07339000      0.214066    0.25431300    0.30589700
Se   11.53044000    9.01400000    0.32802000      0.377975   -0.77246800   -0.02689100
Se   16.50785000   12.45695000   10.05449000     -0.276286   -0.13363300   -0.34234200
Se   16.72192000   13.46509000   17.90257000      0.165312    0.37208500    0.47790600
Se   15.63981000   18.60763000    6.11488000     -0.628940    0.03790600    0.28997800
Se   15.89084000   19.64646000    0.86526000      0.535910   -0.11046800    0.43356800
Se   21.87161000   22.99450000    8.67933000     -0.141354    0.80443200    0.04155700
Se   22.86242000    0.75223000   15.58603000     -0.220157   -0.07298600   -0.12955200
Se   20.40638000    6.64699000    8.18288000      0.126018    0.00301100   -0.11109000
Se   20.94358000    8.43827000   18.06083000     -1.672298   -1.74083300    1.28630800
Se   21.27421000    9.83066000    7.28163000      0.232433   -0.19936600    0.30052000
Se   21.99978000   10.19792000   17.33346000      0.671521    2.14252100   -0.81400600
Se   20.96718000   16.22454000    6.41157000     -0.989616    0.03213200   -0.30232400
Se   17.93261000   17.66165000   18.88993000      0.741119   -0.84699300   -0.04284100
Se    2.23363000    1.08375000    8.37131000      0.859610    0.15592800    0.53174000
Se    4.06286000    3.26105000   15.80821000     -0.923441   -0.54105600    0.22636000
Se    1.18666000    8.12243000    6.98010000      0.698572    0.36105100    0.51679000
Se    0.51906000    9.05662000   15.82321000      0.301380   -0.56327300   -0.49865200
Se    1.36705000   15.99530000    6.86589000      0.875314    0.78860700    0.30016300
Se    0.98945000   13.02657000   17.01844000      0.146564    0.02155000    0.14747300
Se    1.21163000   18.45886000    5.16291000     -1.025826    0.75873900    0.63510800
Se    2.41577000   20.16706000   15.81040000      2.082963    0.35579700    0.66704400
Se    7.38873000    1.18375000    4.93699000      0.243184   -0.36223300    0.07842300
Se   11.93322000    1.03986000   18.46711000     -0.277542   -0.01208500   -0.31194100
Se    7.66074000    7.08501000    6.87974000      0.537121   -0.50075500   -0.79303100
Se    7.71689000    7.14787000   14.88358000     -0.099624   -0.31270900   -0.29520200
Se    7.46269000   13.79452000    6.23390000      0.338639    0.14907200   -0.14995900
Se    7.88338000   16.77654000   15.05844000      0.312738    0.15206600   -0.06984400
Se    5.40913000   20.13623000    6.34494000     -0.678960    0.14396600    0.13800100
Se    9.22989000   14.55140000   15.27314000     -1.166979    1.81212700    1.30147200
Se   14.82846000   21.14888000    5.99618000     -0.336662   -0.15956700   -0.51790100
Se   15.24690000    1.31805000   16.44079000     -0.794846    0.44488400    1.01140500
Se   12.15480000    6.53311000    7.16184000      0.218549    0.10557600    1.04932700
Se   11.25062000    7.12491000   15.78446000      0.432265    0.23469700   -0.37031000
Se   12.78478000   11.33619000    5.49529000      1.510135    0.03767300   -0.47857000
Se   13.98811000   13.79545000   13.10498000     -0.248803    0.25705300    0.73228200
Se   10.09768000   15.49207000    5.38353000     -0.370648    0.55535000   -0.49103400
Se   13.25619000   20.32124000   19.16737000     -1.202720    0.14666600   -0.07337800
Se   20.90659000    1.78400000    5.59300000     -0.468836    0.62954400   -0.32860900
Se   19.10066000   22.42019000   16.28696000     -0.092529    1.32353600   -1.26381600
Se   17.23872000    4.74715000    6.60256000      1.933987   -0.49453200   -0.81788200
Se   17.80898000    6.45137000   15.72092000      0.200806    0.63302600   -1.30222900
Se   20.21554000   10.13398000    3.71817000     -0.641487    0.18849900    0.41709000
Se   16.95097000   12.61148000   12.95560000     -0.119188    0.52123700    0.03053800
Se   18.25862000   20.08654000    4.27579000     -0.342717    0.14031700    1.03923700
Se   17.07432000   22.53860000   14.30675000      1.053515   -2.85671000   -0.83447200
Se    3.41298000    6.93885000    7.00060000     -0.101306   -0.70074600   -0.63680400
Se    3.95249000    4.32993000   12.56193000     -0.017824   -0.08240200   -0.59115700
Se    1.86828000    7.52985000    3.15689000      0.038671    0.24224700    0.35553500
Se    3.88160000   10.99887000   14.79165000      1.639461    1.55454300    1.04430800
Se    5.66746000   12.47038000    6.99648000     -0.519832   -0.12915300    0.02675900
Se    3.77694000   17.76080000   18.90654000      0.944095   -0.73636500   -0.23484000
Se    2.05261000   21.48671000    5.73461000      0.131957   -0.51089700    0.69031900
Se    5.18379000   22.30673000   15.26734000     -0.267323    0.75565100   -0.34876200
Se   10.77511000    2.44591000    6.98088000      0.489800   -0.15154700    0.00649900
Se    9.51294000    4.10803000   16.33748000      0.509427    1.50200300   -0.42874100
Se   10.26362000   10.30501000    6.63203000     -0.737765   -0.72294800   -0.08625700
Se    7.70281000   10.97040000   14.75174000      0.542463   -0.08707400   -1.23716800
Se    8.79497000   15.51828000    8.88319000     -0.389818   -0.53286500    0.64399300
Se   11.18743000   18.30415000   15.77401000      0.299385   -0.22136200   -0.42789900
Se    8.38752000   19.11551000    3.53661000     -0.478890   -0.16275700    0.19537800
Se   10.59547000   21.46963000   16.53775000     -0.510475   -0.71035800    0.33189500
Se   14.06677000    3.79214000    5.06566000     -0.518309    0.67199200    0.63610900
Se   18.56744000    2.86383000   14.88209000     -0.092457    0.25614300   -0.12840100
Se   15.17915000    8.56463000    7.18885000     -0.069836   -0.18588300   -0.10746000
Se   16.47568000    9.01726000   14.35081000     -0.213655    0.34877200   -0.48543400
Se   16.65830000   12.35775000    6.23641000      0.949080   -0.67822100    0.78098200
Se   15.70040000   19.37719000   16.15830000      0.431058   -0.42867100    0.07433600
Se   16.12911000    0.21076000    5.57335000     -0.338717   -0.01053700    0.58208900
Se   19.20218000    3.28195000   12.15113000     -0.721001   -0.72371000    0.25419500
Se    0.85769000    4.61288000    8.00176000     -0.296117   -0.79680100   -0.08081300
Se   22.84246000    3.33140000   13.60132000      0.220838    0.24316800    0.09994800
Se   20.10175000   12.55548000    7.24785000     -0.006208   -0.54784500   -0.02196800
Se   20.80797000   13.27868000   16.44730000     -0.164314    0.67618500   -1.02912100
Se   22.17247000   12.29319000    5.87963000      0.492991    1.09116600    0.36007300
Se   18.82167000   18.14047000   14.63316000      0.723972    0.50306300   -0.74046300
Se   22.08681000   19.39350000    7.91596000      0.391211   -0.94697200   -1.16178400
Se   22.52682000   20.50387000   17.83193000     -0.401188   -0.32415100    0.37018600
Se    3.43265000    2.50326000    5.27875000     -0.855676    0.39492400    0.29511400
Se    7.09161000    2.35243000   16.76860000     -0.473856   -1.71196600    1.31312100
Se    2.84556000    3.89001000    0.36410000     -0.572762   -0.17934800    0.04732300
Se    2.63904000    9.82320000   10.93928000     -0.589824   -0.30572300    0.17957400
Se    1.00319000   12.09195000    2.83975000      0.412470   -0.49294600   -0.42518300
Se    2.93156000   16.67994000   14.60943000     -0.015777   -0.82839800   -0.04121200
Se    4.15609000   15.92350000    1.44546000     -0.144260   -0.27900500    0.12208300
Se    4.84002000   19.44538000   13.42954000      0.737459   -0.45782600    0.01655200
Se   10.38007000    1.33891000    3.81111000      0.179113   -1.40530600   -0.03111300
Se   11.20999000    0.93381000   13.82978000     -0.092107    0.14304400    1.05288700
Se   10.00825000    9.34185000    3.34162000     -0.326495   -0.13000700   -0.20644400
Se    7.48600000    8.62079000   16.67857000      0.032002    0.94944500    0.92833900
Se   10.21574000   12.75392000    3.35911000     -0.541150   -0.18642300    0.65049000
Se    9.44937000   13.35077000   11.84911000     -0.639412   -0.12255500   -1.63510400
Se    9.15046000   20.70115000    0.63341000     -0.163238    0.58774100    1.94895200
Se    9.84383000   18.20113000   13.80605000     -0.116491   -0.00090200    0.54877000
Se   19.20845000   21.91909000    7.69423000     -0.735620    0.56775100    0.15042600
Se   14.52094000    2.61684000   13.05657000      0.367093   -0.57487600   -0.11088700
Se   15.40233000    6.77767000    3.80208000      0.120267   -0.01899400    0.13195400
Se   14.91256000    5.47845000   15.61622000      1.041140    1.00404300   -0.41774500
Se   15.28260000   12.24477000    1.93987000      0.485608    0.36667300    0.34639600
Se   15.89703000   17.09941000   12.90909000     -0.859066    0.27461900    0.51688000
Se   16.29472000   16.64838000    3.23620000      0.634899   -0.00058700   -1.00226200
Se   13.96131000   20.22423000   14.43808000      0.792676   -0.09598100    0.47703300
Se    0.18354000   22.48732000    4.86299000     -0.573217    0.48499500   -0.33043500
Se   21.74389000    0.18786000   13.53524000     -0.401026   -1.30036800    0.31315100
Se   19.69719000    3.01924000    3.81270000      0.371900    0.47092800    0.46426500
Se   20.02596000    9.89470000   14.14966000     -0.172104    1.31014200   -0.36281700
Se    2.47914000   11.68387000    5.47138000     -0.184181    0.17523300    0.48233700
Se   21.78232000   14.85257000   14.86363000     -0.301070    0.64878700    0.74641200
Se   22.36638000   19.15106000    3.87548000      0.101670   -0.10853700   -0.13755500
Se   21.38097000   19.97591000   12.14423000      1.347843    1.30430400   -0.31886800
Se   22.86196000    5.10424000    5.77091000     -0.546424    0.02998400   -1.10913500
Se   20.89016000    6.04676000   15.63142000     -0.053601   -0.41464900   -0.28124700
Se   22.18685000    9.98191000    2.46908000      1.094764   -0.25529800   -0.66973300
Se    0.64472000   11.87942000   13.51688000     -0.031685    0.14820100    0.42370000
Se    1.98037000   13.80140000    1.35729000      0.502318   -0.47875600    0.10680400
Se    2.11618000    0.02397000   13.12787000     -0.456941    0.12577200    0.26189000
Se    4.23976000   22.65909000    2.39643000     -0.048552    2.16275400    0.64322300
Se    5.74175000   19.08212000   15.57972000     -0.024900   -0.53548400   -0.29221400
Se    8.72194000    5.16218000    8.04372000      0.043185   -0.03098500   -0.18957400
Se    7.96072000    5.23044000   13.13075000     -0.997300   -0.55073200   -0.00638400
Se    4.79054000    6.91030000    4.50115000      0.075047   -0.62601800    0.28515700
Se    7.83600000   11.33337000   12.37556000     -0.334004   -0.03995900    0.40892900
Se    7.87892000   15.29840000    2.55938000      0.545499   -0.62173600   -0.15747200
Se   11.89343000   14.85896000   13.76403000      0.734398   -0.31723700   -0.85042800
Se    6.84961000   22.60636000    6.67995000      0.243881    0.32253800    0.15275300
Se    7.73754000   21.58324000   13.90196000      0.461389   -0.00586300   -0.18568500
Se   12.94156000    1.61374000    3.51752000     -0.303792   -0.12955400   -0.08012900
Se    9.57909000    1.82014000   12.37423000     -0.619646    0.41793100   -0.21753100
Se   14.55080000   10.17691000    3.99863000     -0.285050   -0.33965300   -0.24311700
Se   11.45718000   10.72684000   13.33512000     -0.263310    0.16703400   -0.65989500
Se   12.54082000   15.42007000    2.36014000     -0.789072    0.01952300   -0.11051000
Se   13.42460000   17.86184000   14.10119000     -0.129685   -0.61640500   -0.41732500
Se   11.73101000   19.62084000    3.39377000      0.341525   -0.45374800   -0.59883400
Se   13.97322000   23.00157000   14.84165000     -0.696754   -0.16273300    0.35004300
Se   18.09699000    3.48162000    0.69058000      0.150165    0.17518700    0.40017700
Se   16.34895000    6.68445000   12.41377000      0.306004    0.30398700    0.25441000
Se   18.46753000    8.58043000    4.95786000     -0.175940    0.01822400   -0.37799300
Se   19.72975000   12.88010000   11.80688000      0.747997    0.68635300   -0.50897100
Se   22.37107000   15.68616000    3.19856000      0.289222   -0.98115200   -0.77852300
Se   19.27796000   15.37789000    9.55500000      0.066383    0.24492300    0.13289100
Se   19.94595000   22.00055000    3.13771000     -0.747670    0.96212900    1.67603600
Se   16.92879000   21.92716000   10.92657000      1.316473    0.42812600    1.53396200
