384
23.00800000 23.00800000 19.32000000
Ge    4.91603000    5.06295000   11.26874000      0.423589    0.43751300    0.18777300
Ge    5.16141000    5.36025000    2.01204000      1.125732    0.37582100   -0.51017300
Ge    0.92112000   12.13049000    7.89981000      0.758299   -0.40662800   -0.26529400
Ge    6.90127000   11.47047000   17.66460000     -0.056782    0.58859200    0.42247200
Ge    4.45151000   14.92061000   10.02509000      0.458497   -0.32798700    1.22006100
Ge    8.04572000   18.77903000    0.92560000      0.388605    0.51389000    0.20148500
Ge    9.17712000   20.58723000    9.50054000     -0.084730    0.34321100   -0.17213100
Ge    4.56950000    1.62962000    0.13839000      0.279060   -0.56677700    0.39156600
Ge    9.01233000    5.25712000   11.21848000     -0.677961   -0.17417900    0.10055400
Ge   11.80039000    5.05820000    0.46480000      1.425048    0.38543100    0.88494000
Ge   10.78027000   11.07231000    9.17346000      0.494098    0.15923600    1.35840900
Ge   10.58383000   12.60683000   17.56536000      1.498447   -0.41283700   -0.54831500
Ge   10.16706000   16.90306000    8.33689000      0.319772   -0.51643800   -0.08655200
Ge   12.39626000   14.75760000    0.24990000      1.007498    0.54922100   -0.08678100
Ge   10.53846000    1.42519000   10.44713000     -0.126446    0.40787600   -0.48644200
Ge   14.97466000   21.46820000    0.63422000      0.787620    0.47077200   -0.74574700
Ge   19.15818000    5.77623000   10.04378000     -0.370188   -0.10620800    0.10426100
Ge   18.80023000    9.03124000   16.13349000     -0.197750   -0.67247500    0.06457500
Ge   21.30894000   14.27778000   10.27619000      0.048901   -0.23879500    1.21184200
Ge   15.87228000   10.88625000   18.77905000      1.165679    0.75384400   -0.94486400
Ge   14.06027000   16.64062000    8.80647000      0.040698    0.54605900    0.67162200
Ge   17.88117000   15.74063000    1.29043000     -0.005931    0.63766800   -0.34935000
Ge   18.15703000    1.07156000    9.17099000     -0.125349    0.01965600    0.21636200
Ge   18.21601000    2.22044000   19.01119000     -0.408510   -0.35718000    0.22819700
Ge   22.99829000    5.57637000    9.56816000     -0.596853   -0.56108000    0.00049200
Ge   19.96355000    4.26529000    1.31158000     -0.183760    0.16492400   -0.02550800
Ge    0.33765000    9.79019000    9.16982000     -0.119479   -0.23562200    1.00712700
Ge    0.68086000   11.87773000   18.70500000     -0.023129    0.44135500   -0.21802400
Ge   21.69770000   15.68233000    8.18018000      0.848111    0.15844100   -0.36076200
Ge    2.27083000   16.48144000   17.75578000      0.279340   -0.99959200   -0.14079400
Ge   20.69816000   21.98605000    9.59594000     -0.511852    0.07947600    0.60647300
Ge    1.10805000   21.97892000    0.39096000      0.464986   -0.39986500   -0.43103000
Ge    5.19784000    9.29665000    8.82491000     -0.010988   -0.08195200   -0.70576500
Ge    0.89506000    6.38280000   18.98462000     -0.687117    0.09875100    0.24228500
Ge    1.15161000    8.65410000    5.03919000     -1.517537    0.25927300    0.07949700
Ge    4.63725000   13.78623000   16.78433000     -0.621497   -1.50725900    1.18970900
Ge    4.36612000   18.25474000    3.04936000      0.214900    0.95865200    0.14813500
Ge    1.66370000   19.20387000   18.55893000      0.368751    0.27993400   -0.38393200
Ge    5.51587000   18.72478000   10.08577000     -0.544980    0.27784800   -0.01055100
Ge    4.01602000    0.63745000   16.68185000      0.698327   -1.00693100    0.12475000
Ge    9.09296000    3.78945000    7.57326000      0.353076    0.21853100   -0.64838300
Ge    7.45478000    6.07712000   17.07585000      0.518642   -0.68343600    0.53391800
Ge    6.80598000   13.27445000    4.37196000      0.314086   -0.89715100    0.14073000
Ge    8.51354000    8.08460000    1.02161000      0.033136    0.21239400    0.21252700
Ge    6.21535000   17.07667000    7.12601000      0.802507   -0.70441900   -0.29478800
Ge    9.13560000   16.27832000   16.79126000      0.007378   -0.65844400    0.07305400
Ge   10.72270000   22.49555000    5.15330000      0.705366    0.86837900    0.60648500
Ge   10.71694000   21.63414000   14.43374000      0.861916   -0.03328300   -0.70348700
Ge   12.87232000    6.42216000    8.32916000     -0.649636    0.03911500   -0.24283900
Ge   13.53199000    6.34795000   16.24140000      0.274005   -1.02132400   -0.01838800
Ge   13.67911000    9.82746000    7.47122000      0.748291   -0.19945500   -0.54926400
Ge   15.56363000   12.93410000   15.87383000      0.276740   -0.42885500   -0.77385600
Ge   12.78792000   16.91159000    5.51602000     -0.103769   -0.30509500   -0.58443300
Ge   13.91650000   18.21884000   18.86159000      0.118302   -1.60696400   -0.11608000
Ge   13.79925000   22.40654000    8.53038000     -0.442155    0.20609400   -0.00157200
Ge   15.49573000    1.63319000   14.35675000      1.499002   -0.35694400    0.52310000
Ge   20.37608000    3.63026000    6.44216000      0.601935   -0.49102900   -0.41660000
Ge   20.22317000    5.68793000   16.81655000      0.641419   -0.67393600   -0.14496000
Ge   17.66042000   11.21435000    7.19262000     -0.165474   -0.90021400   -0.01988100
Ge   20.12722000   13.50944000   17.69690000      0.973622   -1.50103000    1.06485300
Ge   18.41021000   16.24932000    5.96680000     -0.610231   -0.75873500   -1.45205100
Ge   18.29529000   20.45546000   17.93937000      1.011973   -0.43994000    0.18597600
Ge   21.79989000    1.22195000    7.40532000     -0.216427    0.65400400    0.16277600
Ge   19.10404000   21.69967000    0.91129000     -0.181364    0.07756100   -1.53845000
Ge    5.62169000    3.07761000    7.61226000      0.312686   -0.12940700   -0.11363500
Ge    5.08682000    4.50943000   15.36134000     -0.350720   -1.04412800    0.10270200
Ge    2.80042000    7.03968000    3.98548000      0.452973   -1.65604800   -0.57487800
Ge    2.90975000   10.07285000   13.39187000      0.392770   -0.33624700   -0.04750800
Ge    1.58574000   15.74919000    3.74707000     -0.988652    0.08814000   -0.25378400
Ge    1.09650000   18.81251000   14.20072000     -0.038166    0.18054200    0.42356700
Ge    2.06793000    1.17681000    8.47139000      0.956029    0.66386700   -0.03484200
Ge    6.09089000   18.85295000   15.75910000     -1.292517    0.31708100   -0.20951200
Ge    8.98469000    3.39202000    3.23247000      0.103602    0.32767300   -0.47586900
Ge    9.78910000    1.63779000   15.64738000     -0.612387   -1.79472000    0.04010300
Ge    8.80114000    9.70580000    5.29209000     -0.471138   -0.44968800   -0.22055100
Ge   10.28632000   10.16563000   14.93592000     -0.292610    0.25314200   -0.99690700
Ge   10.38939000   14.24091000    5.15701000     -0.432941    0.00100000   -0.33280400
Ge   12.91077000   11.99578000   13.66236000     -1.348967   -0.15049400   -0.20932900
Ge    6.38450000   21.55613000    2.68017000     -0.210117    0.17976200    0.20952600
Ge    8.97339000   18.60257000   15.41920000     -0.205018    0.28420500   -0.01375800
Ge   13.70178000    1.41247000    6.43628000      0.048791    0.03112500    0.10837700
Ge   11.74877000    3.84383000   15.06791000      0.166248    1.17604300    0.67790400
Ge   15.48621000    6.39635000    6.20695000      0.086613    0.84175700   -0.61097700
Ge   14.59918000    9.09704000   14.84710000      0.725982   -1.70362600   -1.16842700
Ge   14.89741000   14.02715000    5.15883000      0.608807   -0.24547500   -0.17061600
Ge   14.41340000   16.33311000   14.55189000     -0.472306    0.33229200   -0.13351900
Ge   11.91507000   18.33427000    3.01666000     -0.339082    0.03391200    0.21634500
Ge   10.19019000   21.58428000   17.00136000     -0.134331   -0.61465400    0.32662700
Ge   18.21071000    4.52849000    3.72424000     -0.086011    0.41923300    0.05706800
Ge   20.60127000    2.37508000   12.74570000      0.014748   -0.32341200   -1.20251900
Ge   20.09908000    7.71819000    6.16072000      0.250137    1.03885800   -0.10951200
Ge   18.81670000   11.59500000   13.66043000     -1.365372   -0.06329900    0.51081300
Ge   21.61353000   14.97526000    1.35682000     -0.750799   -0.73223500    0.73696500
Ge   20.01672000   14.94880000   13.92271000      0.019467   -0.02041300   -1.12605500
Ge   19.39418000   19.65115000    5.85210000     -0.525268    0.44954300   -0.41118600
Ge   22.40106000   21.29280000   15.94423000      0.494964   -0.88955100   -0.04100400
Ge    5.30925000    2.34139000    4.07139000     -0.065671    0.84009800    0.75815100
Ge    5.55680000    1.63107000   14.05892000     -2.627146    0.19505700    1.05449900
Ge    5.99872000    9.20484000    4.08953000     -0.176739    0.22124900    0.74855800
Ge    6.73190000    8.00892000   12.17849000     -0.179146    1.17882800    0.71092300
Ge    6.98266000   15.45267000    3.10020000      0.499857   -0.50104000    0.26673200
Ge    3.86301000   13.46135000   13.50266000     -0.160498    0.35709200   -0.27422800
Ge    5.42749000    0.25247000    6.49961000      0.454848   -0.45599700    0.55849700
Ge    7.46973000   19.41950000   12.22574000     -0.625805    0.29194200   -0.25071400
Ge   12.60768000    3.81422000    4.70500000     -0.924973    0.82951300   -1.10108000
Ge    7.62375000    1.47594000   13.11690000      2.676548    0.30987700   -1.69664500
Ge   11.75809000    8.70308000    0.50491000     -0.217913    1.14060700    0.58607300
Ge   11.50585000    6.15160000   12.87923000      1.556351    0.77887500    0.65538000
Ge    9.97971000   14.08230000    1.51329000     -0.834493   -0.79250100    0.12418400
Ge    8.69854000   14.59460000   11.88072000      0.139158   -1.16312700   -0.87893400
Ge   11.74003000   20.49871000   19.04982000     -0.223052   -0.32872400   -0.51356400
Ge   12.08714000   19.93343000   10.85472000      0.584891    0.50874100   -0.48007400
Ge   21.53844000    0.59616000   17.86413000      0.311790    0.21413800    0.11397800
Ge   14.14218000    5.60534000   11.76702000      0.466569   -0.21256700    0.04764500
Ge   16.94056000    8.25352000    0.85547000      0.913253    0.02882200    0.64936300
Ge   14.75493000    9.47069000   10.16767000     -0.776958    0.29884200    0.08586000
Ge   16.91691000   11.79087000    2.79227000     -0.140690    0.31033200    0.34132700
Ge   18.18829000   15.08271000    9.00189000     -0.422296   -0.60901400    0.58431600
Ge   16.97375000   18.27975000    1.96296000      0.489296   -0.83186500    1.42249700
Ge   16.66299000   20.96462000   12.20239000     -1.196617    0.39771600   -1.96502900
Ge    0.12579000    2.03150000    1.65463000      0.528716    0.29553500   -0.26347800
Ge    0.13142000    0.25164000   10.98203000     -0.346798    0.11819700    0.57182300
Ge   21.90449000    7.62980000    2.71335000      0.584418   -0.68590000    0.54930800
Ge   22.24964000    9.88461000   12.36034000      0.216533   -0.47022800   -0.33735800
Ge    0.04302000   12.68996000    3.97770000      0.146813    0.35206800    0.13292300
Ge    1.20612000   15.77276000   10.30966000      0.054582    0.24261800    0.48318900
Ge    0.66672000   20.77635000    4.51873000     -0.005608   -0.31081400   -0.14812400
Ge   20.77598000   17.94903000   12.11261000      0.547377   -1.49724600    0.95262000
Se    1.35401000    1.36987000   18.78498000     -0.684405   -0.25439900    0.20768500
Se    1.72703000    3.47624000   11.62283000     -1.819265    0.59241100    1.28929800
Se    1.14950000    8.07716000    1.70230000     -0.394753   -0.46989900   -0.20406200
Se    0.63355000    8.07257000   11.26110000     -0.178372   -0.02507500   -0.62920500
Se    2.87194000   11.76932000    0.80069000      0.375840    0.06109200    0.17283900
Se    1.47959000   13.27523000    9.92377000     -0.233687    1.01344700    0.57953500
Se    1.69308000   18.37608000    4.02346000      0.625767    0.30601300   -0.20168800
Se    2.13676000   18.62556000    9.35451000     -0.782832   -0.59039600    0.41369300
Se    6.95739000    1.76730000    2.55874000      0.477195   -0.61030800   -0.68686200
Se    7.62242000    0.99760000   10.52534000      0.251590   -0.11255300    0.35130200
Se    7.52346000    4.94425000    1.27893000     -0.494724    0.22097100    0.03513500
Se    9.59037000    7.40667000   12.41690000     -0.908912    0.13144400   -0.33455800
Se    8.15974000   10.95856000    0.54831000     -0.071168   -0.78725100    0.30077900
Se    6.43033000   13.66833000   12.49532000     -0.487863   -0.18976800   -0.17406100
Se    5.25002000   19.79453000    1.02701000      0.166370    0.43275500    0.23335400
Se    9.46122000   18.63872000   11.18593000      0.290848   -0.18005200    0.32543700
Se   14.03467000    1.97612000    0.59939000      0.335512    1.00702400   -0.41239600
Se   13.18916000    1.16710000   10.58498000     -0.519314   -0.16989100   -1.58960600
Se   10.66949000    6.85930000   18.68852000     -1.372604    0.31975400   -0.17893300
Se    8.82266000    9.37312000    8.76567000      1.058589   -1.18988300   -0.08355000
Se   11.79111000   12.35038000    0.57928000     -0.518101    0.25672100   -0.34579200
Se   13.41620000   11.88282000   10.64127000     -0.122486   -0.16040800   -1.14658000
Se   15.06849000   16.04311000    2.07985000     -0.147317    0.27899300   -0.84478600
Se   11.92224000   17.31418000   10.12456000      0.390562   -0.27073400   -0.00465300
Se   16.60557000    3.23886000    2.39623000      0.489513   -0.24544500   -0.41663800
Se   15.96846000    3.43780000   11.34765000     -0.546824    0.12471400    0.11426000
Se   16.05579000    6.97564000   18.16409000     -0.135340    0.06196600   -0.90362300
Se   20.04710000    5.77148000   12.50092000      0.202525    0.82634100    0.04073700
Se   18.43810000   10.04084000   19.30153000     -0.828017    0.09230400   -0.26038200
Se   16.31081000   15.47521000    7.30090000     -0.184149   -0.27210900    0.17217900
Se   20.35440000   16.70338000    0.43936000     -0.231309   -0.17554600   -0.08629900
Se   18.66792000   20.28490000   10.98665000     -0.210350   -0.53450900   -0.46259100
Se    3.70736000    3.94343000    3.18298000     -0.267020   -0.27463500   -0.11877100
Se    3.67447000    7.24319000   12.38723000      0.499357   -0.50324100   -0.41493000
Se    5.99331000    9.75181000    1.80755000      0.560494    0.40342900   -0.83012100
Se    5.06431000   12.52643000   10.73821000     -0.063641    0.60871100    0.17347000
Se    4.58132000   15.94598000    3.93560000     -0.035253   -0.71423700    1.04966900
Se    3.23742000   15.70195000   12.06407000     -0.232932    0.48084000   -1.14709900
Se    2.79999000    0.73156000    1.99907000      0.006339   -0.01475400    0.28148300
Se    6.37003000   21.06520000   10.66433000      0.937020   -0.65739600   -0.13463600
Se   11.46148000    5.86532000    3.58062000      0.642348   -0.74967000    0.01088300
Se    7.01798000    3.14531000    9.85021000      0.016460    0.78003000   -0.17861000
Se   10.18067000   10.08676000   17.80672000     -0.226217    0.06352600    0.02786200
Se    7.27585000   10.85206000    9.42375000     -0.629096    0.91425500    0.13643700
Se   10.74694000   18.02924000    0.92052000     -0.198596    0.02072400   -0.57696100
Se   11.56730000   14.57187000   11.47181000     -0.361173   -0.22359500   -1.37743900
Se   12.85336000   22.67941000    0.27281000     -0.212833    0.34362400   -0.14819800
Se   10.75836000   22.38845000   11.62853000     -0.144046   -1.66975000    0.91852500
Se   14.37235000    4.27668000    1.45422000     -0.593014    0.31409000    0.14222300
Se   16.62263000    7.41311000    9.70047000      0.582867    0.63976500   -0.34442700
Se   14.85371000    9.53469000    1.12207000     -0.460878   -0.53871700    0.86354200
Se   15.36736000   10.39678000   12.57882000      0.554224    0.06679500    0.13199200
Se   18.33130000   14.02111000    2.92623000      0.383753   -0.13305700   -0.09213700
Se   14.45558000   12.51161000    8.53041000      0.546527   -0.51886400    1.14528100
Se   16.99607000   22.55258000    1.75314000     -0.294137    0.35954900   -0.08622200
Se   14.67757000   20.80194000   10.13686000     -0.336524   -0.67800500    0.70146600
Se   20.78726000    0.71545000    1.55881000     -0.131620    0.03507200   -0.24923900
Se   21.66480000    2.96338000   10.56030000      0.212256   -0.09664900   -0.54161900
Se   19.97024000    6.80968000    1.27350000     -0.147060    0.30783200   -0.61663500
Se   20.89246000   10.20971000   10.21822000      0.377778   -0.07413900    0.20103600
Se   20.73300000   12.59171000    0.68449000     -0.231712    1.39325600   -0.44802300
Se   22.52969000   15.88472000   12.45157000      0.021387    0.51221800   -0.46316400
Se   22.44932000   22.00099000    2.22282000      0.021567    0.19029000    0.33534900
Se   20.14253000   20.28963000   15.70669000     -0.245135   -0.51854300   -0.31036200
Se    4.14323000    5.19128000    8.48666000     -0.207787   -0.26722100   -0.10575500
Se    1.32164000    5.67191000   16.46237000     -0.802795    1.01279300   -0.10417200
Se    3.55165000   11.36141000    8.26424000      0.514558    0.13845100    0.05894400
Se    3.41099000    9.77161000   18.73374000     -0.552681    0.13311000   -0.17489400
Se    4.70115000   19.10188000    7.47855000     -0.549952    0.24528700    0.06825300
Se    0.44786000   17.70813000   16.57369000      0.448519   -0.15529900    0.36100500
Se    2.46244000   21.83946000   11.76972000      0.419137   -0.02063400    0.00330500
Se    4.75653000   20.88441000   16.99220000     -0.981899    0.96873800    0.02343100
Se    6.85817000    3.87670000    5.57630000     -0.155683   -0.28609600    0.34599500
Se    6.12445000    3.27300000   17.64260000      0.172143   -0.45298700   -1.24005000
Se    6.58250000   10.63578000    6.37148000     -0.276281   -0.02708000   -0.51262900
Se    4.85791000    5.99674000   17.44720000     -0.126422    0.75058700    0.35351900
Se    6.67554000   16.32884000    9.66549000      0.283330    0.06132600    0.44896100
Se    7.57132000   17.23040000   18.42519000     -0.447221   -0.42157000   -0.02145800
Se    8.87279000   18.79515000    7.78350000     -1.394510    0.27940500   -0.33906400
Se    6.15320000   22.47740000    0.26073000     -0.114941   -0.17641100    0.12056300
Se   13.44986000    2.95902000    8.82462000     -0.185876   -0.51965900    0.53131700
Se   12.77215000    4.29358000   17.50616000      0.712229   -0.17490500   -0.57678600
Se   12.44846000    8.01009000   10.17462000      0.389468   -0.19435000   -0.20140700
Se   13.68009000   11.01861000   15.72738000     -0.989443    2.30205000    1.74731700
Se   13.10465000   14.98078000    7.36003000      0.187895   -0.89794900   -0.79423000
Se   14.43583000   14.01863000   17.82082000     -0.569647    0.82319400    0.31021200
Se   13.24029000   21.36480000    5.72877000      0.766464    0.61376700   -0.32527800
Se   16.71713000   21.98560000   17.09513000     -0.933846    0.32879100    0.06374900
Se   18.11484000    3.56523000    9.53831000     -0.300948   -0.08251100    0.00890200
Se   19.92378000    2.98372000   17.38246000      0.626471    1.04996200   -0.47746600
Se   19.52934000    9.69251000    8.02907000     -0.238357   -0.51578400   -0.84058500
Se   16.57531000   10.17569000   15.99086000      0.755397   -0.13342300    0.17310000
Se   15.60343000   16.17872000   10.68815000      0.689469   -0.78526600   -1.25736900
Se   18.16385000   14.67610000   17.44564000     -0.567993    1.16567600   -1.08788700
Se   17.26812000   20.11620000    8.96269000      0.621119    0.12013300    0.04572600
Se   19.65642000   19.93633000    2.39230000      0.134810   -1.24835600   -0.00657700
Se    4.81391000    0.40613000    8.97936000     -0.564942   -0.09024000   -0.99017800
Se    2.48329000    3.78034000   16.59734000      0.774970   -0.87367000   -0.13400600
Se    6.78080000    7.06634000   10.00823000      0.518694   -0.55745200   -0.57935900
Se    3.53448000    6.33778000    0.39693000      0.428790   -0.20755300   -0.20118400
Se    4.12059000   15.65000000    7.79863000     -1.139484   -0.28342900   -1.18801200
Se    5.35458000   13.35217000   18.96941000      0.951233   -0.29869100   -0.39676200
Se    3.49899000   20.49464000    9.85602000     -0.568045   -0.03211900   -0.30406900
Se    1.04427000   16.53382000    0.62140000      0.375224    0.62049700   -0.32884600
Se    9.39467000   22.56750000    7.58015000      0.932113   -0.56732500    1.11956300
Se   10.22235000    3.45767000    0.44329000     -1.653338   -1.13105400    0.65189900
Se   11.10758000    3.97162000    9.43441000      0.324815    0.80947200   -0.74542100
Se    6.33994000    8.57475000   18.18510000     -0.065233    0.02898500    0.18740500
Se   11.06878000   13.86646000    7.80342000     -0.538962   -0.24357200    0.52109400
Se    8.57361000   13.61749000   17.82351000     -1.909138    0.29348800    0.26215300
Se   11.50803000   20.35319000    8.32846000      0.451511    0.68671900    0.97913500
Se   11.46164000   15.03359000   17.24216000      0.666138   -0.06876400   -0.17327100
Se   15.93442000    1.08079000    7.80413000     -0.057933   -0.51210400    0.68718400
Se   15.70166000    2.91075000   18.03894000      0.129297   -0.84415500   -0.47495900
Se   15.30375000    5.71875000    8.68730000     -0.210353   -0.80516900    0.80311300
Se   13.68417000    7.85297000   18.11068000      1.021085    0.22894100   -0.08623300
Se   16.78756000   11.13292000    9.51959000     -0.321396    1.05253000   -0.06609100
Se   16.44307000   13.80712000   19.13806000      0.240345   -0.54446800    0.73546700
Se   13.61234000   18.42460000    7.22894000      0.664605    0.94116200    0.05483300
Se   16.32631000   18.98729000   19.18641000      0.418102    0.35865200   -1.54696500
Se    0.18160000   21.97385000    8.65136000     -0.731660   -0.02273200    0.43619100
Se   22.40799000    0.63530000   15.50724000      0.010838    0.22145000    0.28173100
Se   20.61565000    5.58642000    8.06553000      0.671718    0.89347100    0.41960800
Se   21.17588000    7.47408000   18.26415000      0.154805   -0.24585300    0.46226100
Se   22.35316000    9.71924000    6.53648000     -0.967145   -0.84177200   -0.67908800
Se   20.37798000   10.99760000   16.95972000     -0.375303    0.65643000    0.55331500
Se   19.53147000   16.87516000    7.99902000      0.962914    1.12932900    0.54316400
Se   19.97467000   16.25492000   16.05906000     -0.554468   -0.19436500    1.05965200
Se    3.20341000    2.91537000   10.06704000      1.501527   -0.31928900   -0.31259100
Se    3.22011000    0.36446000   14.21448000      0.570013    0.11389300    0.31567000
Se    1.27966000    8.05410000    7.33879000      0.535449   -0.53896000    1.29303500
Se    1.30935000    9.70258000   17.54776000      0.464472   -0.32214300   -0.01345600
Se    0.53332000   16.62122000    6.80340000     -0.310015    0.78174800    0.64374700
Se    2.18434000   13.66918000   17.25658000     -0.480318    0.54084800   -0.14151600
Se    0.24073000   19.02649000    7.63076000      0.513854   -0.55051900   -0.23715200
Se    2.34715000   20.58055000   16.46664000      0.397186    0.18062800   -0.00530800
Se    8.22406000    0.34909000    5.78859000     -1.658261    0.63852700   -0.83075800
Se   10.27159000    0.78083000   17.94405000     -0.132238    0.04441600   -0.25135000
Se    7.75064000    7.26284000    6.14952000      0.523953    0.24325000    0.12285300
Se    6.43195000    6.74491000   14.88244000     -0.433734   -0.19195000    0.04619400
Se    7.50303000   14.38581000    6.45928000      0.105518   -0.05616500   -0.29502900
Se    8.74878000   16.28329000   13.47241000      0.354669    0.53103300    0.47105800
Se    6.95255000   18.87106000    4.51097000     -1.208601    0.41505400   -0.12197100
Se    6.80612000   16.34155000   15.29503000      0.196416   -1.06386900   -0.14230700
Se   15.24203000   21.99090000    4.02986000     -1.033699   -0.71147900    0.15247600
Se   14.38024000    1.20412000   16.38795000     -0.111899   -0.00926600    0.67106100
Se   13.26474000    7.67030000    5.96948000     -0.367430   -0.30538900    0.46804800
Se   11.42060000    6.87944000   15.35774000     -0.575259    0.12660800   -0.69980800
Se   13.47085000   11.77046000    5.67109000     -0.541838   -0.23225800    0.59170400
Se   14.62717000   14.02367000   13.44114000      0.172872   -0.02836500    0.55823400
Se   10.23615000   16.88029000    5.77233000     -0.221533   -0.22995700    0.54465700
Se   13.55095000   19.86213000   17.03905000     -0.337479    0.62764100    0.20202600
Se   19.68144000    1.52507000    4.06968000     -0.383309    0.01879500    0.36787400
Se   19.07335000    0.30602000   17.28732000     -0.312979    0.28863400    0.20874700
Se   18.01029000    3.86318000    6.10182000     -0.634724    0.66806100    0.07969300
Se   18.03950000    6.18486000   16.16847000     -0.006779    0.63800400    0.00104400
Se   20.30372000   10.24981000    4.74228000     -0.029020   -0.22718000   -0.68933200
Se   17.77611000   13.90484000   13.17977000     -0.401367   -0.67583300    0.22194400
Se   17.21848000   18.36518000    5.83012000      0.574566    0.68879200   -0.11096800
Se   17.54982000   22.65059000   14.46961000     -0.359723    0.24616100    0.27403200
Se    4.23993000    6.92912000    6.99623000     -0.260585    0.71470200   -0.10987900
Se    3.32639000    4.74136000   13.27517000     -0.278658    0.27847100    0.02260700
Se    3.38543000    9.30023000    4.38580000      1.016812    1.68968700    0.29186700
Se    5.20122000   12.20533000   15.17896000      0.622888   -1.34263800    0.54942200
Se    5.16884000   13.15440000    7.39063000      0.342114    0.00675400   -0.63651800
Se    4.21377000   17.83393000   18.39547000     -0.822856    0.07974400   -0.35965300
Se    1.65912000   22.52808000    6.54276000      0.314086   -0.59067100   -1.43257700
Se    5.38967000   22.09202000   13.69428000     -0.344857    0.17718800    0.35782300
Se   10.74455000    2.65503000    5.87392000      0.307432    0.08912400    0.39543100
Se    9.50371000    3.84551000   16.14020000     -0.216917    1.31811500    0.00012800
Se   10.65063000   10.41011000    6.88797000      0.180945   -0.31756500   -1.19075600
Se   10.45988000   12.71441000   14.73002000      0.474223   -0.81775700    0.47040700
Se    8.80496000   14.90461000    9.35746000      0.058388    0.27189000   -0.24524900
Se   11.57514000   18.41212000   16.27069000      0.030274   -0.05521300   -0.03918900
Se    9.92269000   20.46127000    4.17967000      0.266621   -1.73138600    0.22316200
Se    7.88266000   20.46008000   16.90757000      1.236277    0.70586400    1.39376600
Se   14.77260000    3.81826000    5.94030000     -0.741054    0.29380200   -0.30504300
Se   17.55091000    2.89918000   15.10324000     -0.363618   -0.29118400   -0.22059300
Se   16.06315000    9.06733000    6.58647000      0.272526    0.56307900    0.14809400
Se   17.70093000    9.87995000   12.05186000      0.233134    0.31907500    0.15355500
Se   17.33209000   13.04555000    5.16513000     -0.063737   -0.45636600   -0.20140900
Se   16.50926000   18.16892000   15.95295000     -0.267866    1.29695700    0.96940700
Se   15.69433000    1.27087000    4.29393000     -0.367453   -0.35130000    0.38076600
Se   18.49516000    3.85684000   12.97529000     -0.191433   -0.33472600    0.09671200
Se    0.54250000    3.68002000    7.68080000     -0.589167   -0.27680800   -0.24626400
Se   22.21925000    3.47729000   13.98317000      0.955883    0.21030600    1.14729000
Se   19.60003000   13.03062000    8.45101000      0.305333    0.60129900   -0.12934200
Se   22.01181000   11.75718000   15.56758000      1.311071   -0.14167700   -0.21962000
Se   21.99379000   13.46942000    7.02491000     -1.500906    0.32289200   -0.42262900
Se   21.49181000   18.20418000   14.50753000     -0.462472    0.86618500   -0.51617600
Se   18.61119000   21.39643000    7.45458000      0.245972   -0.18134300    0.35399300
Se   21.94150000   21.05394000   18.43669000      0.534727    0.26062800   -0.11578100
Se    3.41535000    3.16867000    6.60512000     -0.398527   -0.79094700    0.01210100
Se    6.71931000    0.98571000   16.13612000     -0.706781    0.48515500    1.07777500
Se   22.32439000    4.41403000    0.74911000      1.044966   -0.37660100    0.10268700
Se    4.47384000    9.71721000   11.22309000     -0.153208   -0.60318100    1.25274900
Se    2.46238000   11.93975000    3.18602000     -0.555454    0.39934700    0.04891000
Se    4.31233000   15.60889000   15.49713000     -0.739540    1.51889700   -0.78224000
Se    5.17373000   15.83546000    1.62423000     -0.796501    0.29011300   -1.30821800
Se    5.76224000   17.58134000   12.72722000     -0.577139    0.99920900   -0.14749200
Se   10.38676000    0.99475000    3.06304000      0.658455   -0.01788200   -0.68218000
Se   11.78628000    1.60130000   14.06526000     -0.018735   -1.23224200    0.12167100
Se   10.42018000    8.84198000    2.72106000     -0.242303   -0.45187100   -0.53733000
Se    7.91676000    8.56331000   16.48719000      0.253587    0.56976200   -0.37148700
Se    9.26743000   12.52103000    3.47248000     -0.674659    0.06398300    0.33091200
Se   10.08178000   12.37445000   11.52615000     -0.813118   -0.08484300    0.56243500
Se    8.97970000   21.49808000    2.38651000     -0.421728    0.14230500   -1.34088700
Se   11.05853000   18.91332000   13.88353000      0.207819    0.63018200    0.25426600
Se   17.90232000    0.48625000    5.39560000      0.417310    0.99638600    0.01591300
Se   13.97809000    2.58111000   12.81268000      0.923548    0.83712200    0.03642500
Se   16.03721000    6.41701000    3.60156000      0.917904   -0.01871100    0.34578000
Se   15.41084000    5.81024000   14.80394000     -0.995333    0.04112300   -0.37972700
Se   14.52814000   13.01880000    2.55422000      0.612697    0.00274900    0.22860300
Se   16.79805000   16.26136000   14.85014000      1.304934   -1.42966700   -0.55425000
Se   15.40145000   16.43508000    4.32864000      0.067505   -0.00887000    0.62913600
Se   17.08877000   20.06971000   14.29643000      0.242800   -0.11655100    1.45110700
Se   22.88579000    0.51069000    5.22365000     -0.155666    0.26081400    0.45555300
Se   20.79619000   22.89801000   12.54687000      0.256098    0.72195500   -0.33983500
Se   21.53492000    5.39641000    4.69339000     -0.549438   -0.23724000    0.27456200
Se   21.68772000    8.81870000   14.49353000     -0.220288   -0.19950200   -0.02811500
Se    1.53225000   14.00645000    5.69089000     -0.242928   -0.62088300    0.11927000
Se   21.96073000   14.41704000   16.41487000     -0.388617   -0.02018100   -0.34394700
Se   21.80535000   19.22101000    5.25295000     -0.204010   -0.17318100    0.11978600
Se   21.25815000   19.42110000   10.44732000      0.897891    0.86474200   -1.26555000
Se    0.60529000    4.51978000    5.32663000      0.471759   -0.27208600    0.53428300
Se   21.91948000    6.06383000   14.25682000     -0.371810   -0.16439800    0.19658900
Se   21.18578000    9.85648000    2.39864000     -0.466064    1.26267100    1.05045000
Se    1.23686000   11.42672000   12.38709000     -0.295316    0.18824100    0.36351700
Se    0.92400000   14.21535000    1.35390000      0.741032   -0.21336600   -0.22653000
Se    0.40439000   20.80403000   12.10153000      0.142926   -0.25153400   -0.04978100
Se    3.63449000    0.54901000    4.38211000      0.092825    0.03887100   -0.26497700
Se    3.91453000   18.80493000   14.01568000      1.011669   -0.30999300   -0.20723100
Se    9.73036000    6.08086000    6.62694000      0.202948    0.03220800    0.03275300
Se    7.35582000    4.01745000   12.98167000      0.193931    0.42175700   -0.47056500
Se    5.51307000    6.75795000    4.10640000     -0.237123   -0.27484800   -0.27868400
Se    8.31341000   10.45784000   12.41376000     -0.060861   -0.24260400    0.08614900
Se    8.32029000   17.40637000    3.21748000      0.789501   -0.10088300   -0.79840300
Se   12.16756000   15.14312000   13.52774000      0.003345    0.18250100    0.98699000
Se    5.82786000   20.59999000    6.04471000      0.160087    0.90241800    0.35908600
Se    7.99062000   20.86865000   13.96100000     -0.586721    0.25441400   -0.07613600
Se   12.76749000    1.81926000    2.92766000     -0.355249    0.28286500    1.03037600
Se   11.40843000    3.75092000   12.12879000     -1.150106   -0.58864700   -0.02248400
Se   14.33165000   10.84956000    3.64633000     -0.205248   -0.30892900    0.02849100
Se   11.87993000    9.76398000   13.04491000      0.275448   -0.25454700   -0.20088400
Se   11.63390000   14.98004000    3.05337000      0.806714    0.76749600    0.86936200
Se   14.60160000   17.45752000   12.20261000     -0.782818    1.62539500    1.26586500
Se   13.55685000   19.63161000    1.51786000     -0.191940   -0.06608300    1.30481400
Se   13.18754000   22.00274000   14.66699000     -0.119172    0.50744500    0.08016400
Se   16.94624000    5.43201000    0.78929000     -0.037496   -0.22794800    0.05251000
Se   16.07903000    7.15925000   12.02191000     -0.006124   -0.68323800    0.71387600
Se   17.65477000    8.15391000    3.65723000     -0.170601   -0.04858700   -0.27588800
Se   20.86893000   12.58928000   13.05375000      1.123459    0.01298100   -0.42977000
Se   21.84088000   15.43279000    3.77430000      0.336401   -0.31041500   -0.26976600
Se   19.20143000   16.32744000   11.36227000     -0.344618   -0.66994300    0.40734100
Se   18.46999000   21.16683000    4.06340000      0.237076   -0.32261100    0.41117500
Se   17.38797000    0.25915000   12.01311000     -0.394024    0.92460000   -0.41230800
