384
23.00800000 23.00800000 19.32000000
Ge    5.76766000    4.97961000   10.55014000      1.104013    0.38070000    1.81406200
Ge    3.78119000    8.14047000    1.74919000     -0.404533   -1.11869500   -1.12121700
Ge    1.78762000   10.56341000    7.59760000      0.157832    0.38457200    0.60789200
Ge    6.03741000   10.59428000   17.84340000     -0.585705    0.03875100    0.23851600
Ge    5.04477000   15.38539000    9.96648000     -0.242455    0.22915900   -0.03222800
Ge    7.43462000   17.39609000    1.19985000      0.361071    1.00237600    1.56412300
Ge    6.94905000   19.77822000    8.33083000     -0.542413    0.28084600    1.19463400
Ge    4.90424000    2.21193000   19.11320000     -0.780080   -0.82015400    0.42865900
Ge    9.36868000    5.94753000   11.15239000     -0.647709    0.40718300    0.08454900
Ge   10.64021000    6.31412000    2.70951000     -1.659886    3.49741600    0.79506600
Ge   11.99606000   13.50856000   10.30057000      0.216436   -0.36001300    0.37186200
Ge   12.23456000   12.60057000   17.54222000      0.256255    0.44828200   -1.02618600
Ge    9.93080000   16.95259000    7.25919000      0.435583   -0.24700400    0.32047600
Ge   14.20276000   16.78500000    0.72863000     -0.098337   -0.20973800    0.28850600
Ge   10.41047000    2.40565000    9.76060000      0.723213    0.00552200   -0.19573700
Ge   16.20676000   21.10842000   17.99077000      0.887442    1.50792400    1.94947300
Ge   20.00111000    5.61037000   11.03520000      0.011658   -0.28969700   -0.33185700
Ge   18.35608000    8.52499000   18.02952000     -0.393013    0.08042800   -0.19281900
Ge   22.07989000   14.14467000    9.88837000     -0.342052   -0.57134500   -0.36655900
Ge   16.09223000   11.17471000   18.98465000      0.435256   -0.70241800   -0.03470800
Ge   14.26199000   17.43068000    7.63756000     -0.597861   -0.85189800    0.84620500
Ge   18.80479000   14.37340000    0.82177000      0.558147    0.11736500    0.07502600
Ge   19.49840000    0.55599000    9.79746000     -0.204641    0.29450900   -0.20824000
Ge   17.98239000    1.83312000   17.64656000     -1.184070    0.04951800   -0.78555100
Ge    0.87152000    7.30647000   10.49558000     -0.484032    0.53618400   -0.00564400
Ge   22.44006000    3.04419000    0.49862000      0.110236   -0.43428800    0.18475600
Ge    1.20008000   11.96053000   11.26189000     -0.828910   -0.06835700   -0.75944900
Ge    0.29895000   11.48297000    0.42397000      0.042311   -0.78955100    0.21298400
Ge   22.39125000   14.75748000    7.08116000      0.434072    1.59530600    1.15109500
Ge    0.75440000   15.49565000   16.34346000      0.243257    0.36445000   -0.36450000
Ge   20.69684000   21.09687000    9.29501000      0.149169   -0.31228500   -1.20995500
Ge    3.41208000   21.33373000    0.05819000      0.631228   -0.13367900    1.99183900
Ge    6.13420000    8.58950000    8.53698000      2.198156   -1.96439600   -0.22900300
Ge    1.07938000    5.72419000   18.93199000     -0.162077    0.21776100    0.07720800
Ge   21.95640000    7.87468000    5.76524000      0.119503    0.08068500    0.08711700
Ge    3.44458000   12.80698000   16.07163000     -1.844533    0.81724100    0.24135400
Ge    5.49196000   16.09661000    3.45479000      0.924416    0.33648400    0.28065200
Ge    2.15332000   19.63910000   18.11342000     -0.718463   -1.11532400   -0.16361700
Ge    4.19006000   18.62778000    9.33500000      1.301350    1.17056800    1.81072700
Ge    2.73477000    0.54530000   15.86973000     -0.250363    0.32256100   -0.45004300
Ge    8.16320000    2.65125000    7.27340000      0.617651   -0.05786600    0.33139500
Ge    8.32106000    3.08097000   19.16372000     -0.019066    0.53567400   -0.86069900
Ge    7.48830000   12.88172000    3.85643000     -0.234417   -0.61620700    0.23354000
Ge    7.73639000    9.10991000    1.50126000      0.354214    0.40951300   -0.27496700
Ge    5.45191000   16.42405000    6.40241000     -0.086081   -0.42401900    0.39751500
Ge    9.62177000   15.53523000   18.62535000     -0.875067   -2.29756000   -1.15813800
Ge   10.63562000   22.34259000    5.81761000     -0.065964   -0.14354000    0.03540300
Ge   10.40118000   21.66055000   14.03360000     -0.457459    0.04817900    0.71095600
Ge   12.97656000    5.91870000    9.59261000      0.297480   -0.52067100    0.73518000
Ge   13.94280000    6.63358000   18.12135000      0.595561   -0.48184600    0.03969400
Ge   12.86182000    9.64512000    8.36556000      0.078605   -0.22778900    0.62508100
Ge   15.56260000   13.27822000   15.07415000     -0.012634   -0.00194900    0.62065300
Ge   14.06903000   17.27523000    4.01083000      0.524151   -0.08698700    0.01164900
Ge   13.55253000   19.10477000    1.88661000      0.040611    0.13089700   -1.05838800
Ge   15.11653000   21.40546000    9.34384000      1.038836    0.72287200    0.06400800
Ge   16.49771000    1.97335000   14.30119000      0.590608   -1.41059300    0.82201700
Ge   21.20212000    4.15365000    8.20690000     -0.423896   -0.05584700   -0.25205500
Ge   20.83607000    5.23429000   18.30495000      0.604703    0.36443900   -1.00309500
Ge   15.77353000   10.90176000    8.25774000      0.553740   -0.00467100   -0.09668900
Ge   18.84853000   15.55617000   17.56153000      0.553274   -0.66617600   -0.87748100
Ge   18.84847000   16.42239000    3.94569000      0.217707    0.05202400    0.45977600
Ge   20.99292000   17.57472000   16.34231000     -0.621265   -0.72071000    0.33952100
Ge   22.90357000    2.04674000    4.26284000     -0.634820   -0.57713900    0.06149700
Ge   19.66192000   22.89608000   19.13767000      1.310870   -0.95140000    0.82092000
Ge    5.49285000    3.26407000    7.09170000      0.008791   -0.37334400   -1.19946300
Ge    2.58173000    4.99911000   14.39516000      0.007008   -0.38091500    0.18878000
Ge    2.80740000    5.04203000    4.70978000     -1.490578   -0.63900100   -0.24333400
Ge    1.83884000    9.29109000   13.85305000      0.633018    0.94796400   -0.78583000
Ge    2.17461000   14.99006000    4.14332000     -0.423285    0.35146400    0.22337400
Ge    0.89679000   17.72728000   12.88988000      0.004272   -0.52325100   -0.79721700
Ge    0.69091000    2.29632000    6.79452000      0.507202   -0.05149900   -0.09754200
Ge    4.78321000   16.84805000   16.58749000      0.296005   -0.55174400   -0.09290900
Ge    9.07769000    3.48312000    3.60635000      0.081018   -0.56146300   -0.10889800
Ge   10.08793000    1.69867000   16.57061000      0.149738    0.37818300   -0.91698600
Ge    8.51885000    8.99960000    5.55005000     -0.648284    0.17314000   -1.13223900
Ge    9.50346000    8.92389000   14.51396000      0.287349   -0.08753900   -1.12836500
Ge   11.98508000   13.77965000    5.90594000     -1.021690    0.17366500    0.27052200
Ge   10.20990000   12.93761000   13.94961000      0.070470    0.53857700   -0.59252900
Ge    7.09170000   21.85903000    2.65719000     -0.614290   -0.70850400   -0.53651100
Ge    8.52971000   19.20377000   17.88434000      0.528000    0.18976300    0.86701300
Ge   13.64048000    1.62164000    6.54402000      0.600982    0.36009000   -0.22970400
Ge   10.64527000    5.27048000   13.96967000      0.072957   -0.23829700    0.37167700
Ge   14.94749000    5.94676000    6.75574000      0.146438   -1.21264300   -0.92782100
Ge   13.51779000    9.84108000   14.19842000     -1.008235   -0.06106400    0.08610800
Ge   15.08530000   13.20979000    4.93188000      0.440317   -0.18902900    0.43810800
Ge   15.58973000   17.25306000   15.38782000      0.137358   -1.62056600   -1.04048400
Ge   10.39189000   17.49498000    2.81843000     -0.307502    0.57272900    0.62739500
Ge   12.93345000   22.16562000   17.28392000      0.529521   -0.69060000   -0.34413600
Ge   17.65482000    5.32600000    4.22892000     -1.337283    0.49177700   -1.27218900
Ge   21.53403000    1.85155000   12.06178000     -0.345817    0.47295000    0.10539400
Ge   18.79844000    8.69534000    7.55358000      1.076630   -0.73790500   -1.31827400
Ge   19.31802000   12.50818000   14.51297000     -0.478136    0.01412300   -0.03606200
Ge   22.92418000   14.93488000    0.82232000      0.801138   -0.79573200   -1.22763700
Ge   18.17245000   14.96207000   12.24844000      0.418411   -0.17246300   -0.20208000
Ge   20.87704000   20.43327000    5.26657000      0.164251    0.40208600    0.59893900
Ge   22.95674000   20.68988000   15.28658000      1.191254   -0.43957100    0.46261100
Ge    5.46280000    2.90556000    3.51224000     -0.720607    0.02244100   -0.50616800
Ge    6.04489000    4.77585000   16.31500000     -0.440816   -0.98848700   -0.45780100
Ge    3.50251000    9.60329000    4.08182000     -0.380281    0.27357600    1.81400400
Ge    4.38963000    8.30852000   12.72742000     -0.269220   -0.60537000    0.25327200
Ge    5.91753000   14.03705000    0.41551000     -0.396676    0.25067300    0.45178600
Ge    3.43073000   13.96646000   13.72367000      0.149108   -0.36042700   -0.29875400
Ge    4.31941000   22.92882000    5.57837000     -0.349454    0.11083500   -0.56247200
Ge    7.43565000   19.33006000   12.22809000     -0.799956    1.03627100   -0.37132300
Ge   11.43470000    4.66393000    5.59004000      0.317144   -0.62976100    0.61537400
Ge    7.50521000    1.28264000   13.89405000     -0.026948   -0.10601700   -0.21827600
Ge   12.18763000   10.64220000    3.19371000     -0.405423    0.39292300   -0.10611000
Ge   13.37968000    7.15525000   14.24849000      0.495321   -0.11071300   -0.25361600
Ge   10.74926000   13.94997000    1.25100000     -0.850128   -0.05981700   -0.03091500
Ge    9.32820000   16.56876000   10.93503000     -0.111490   -0.51617300    1.61075200
Ge   11.41870000   22.20522000    0.64693000      0.356683   -0.84798900    1.20916500
Ge   11.83056000   18.76157000   11.67336000      0.347432    0.31470100   -0.03685600
Ge   21.62283000   22.40920000   17.60756000      0.272866    0.69506700   -0.11629400
Ge   14.43346000    4.84802000   12.01106000      0.422688    0.06554900    0.72618400
Ge   16.80229000    7.95198000    2.32895000      1.045323   -0.19295300    0.68640900
Ge   16.00414000    7.22271000    9.58018000     -0.095452    1.03870800    0.42522700
Ge   17.49878000   11.43989000    3.58844000      0.125894   -0.01680400   -0.79934600
Ge   18.92762000   14.81054000    7.00200000     -0.582656   -0.54136400    0.64005000
Ge   18.07143000   18.81570000    1.97937000     -0.066035    0.26885900    0.57438900
Ge   16.38464000   20.06323000   12.76827000     -0.029688    0.24622800    0.04257300
Ge    1.43305000    0.46960000    1.95806000     -0.146324   -0.23488500    0.10383500
Ge    0.43838000    0.59300000   10.39095000     -0.243280    0.32538800   -0.28447600
Ge   20.14254000    5.48525000    4.11122000      0.271919   -0.09963900   -0.13698500
Ge   21.45020000   10.51372000   12.54812000      0.716737    0.29435900   -0.44524500
Ge   21.58309000   12.75529000    3.48908000      0.158773    0.45461900   -0.42699300
Ge   22.83691000   18.73607000   10.21178000     -0.487597   -1.70485300   -0.01573000
Ge    3.26457000   20.35308000    3.38994000     -0.139780    0.49195900   -0.80202100
Ge   19.94537000   17.98130000   12.62046000      1.590756   -0.10770600   -1.37996000
Se    0.57236000    0.76803000   18.58629000      0.627165    0.26740400    0.30696300
Se    1.56130000    2.92453000   10.15079000     -0.094196   -0.88822700   -0.37280500
Se   22.78131000    5.67040000    1.96480000     -0.762861    0.17574700   -0.26611000
Se   22.55618000    8.24968000   12.89282000     -0.274390    0.28997800   -0.47828800
Se    3.25884000   11.51378000   18.92984000      0.112970   -0.61911800    0.34175700
Se    1.57747000   13.79512000    9.70595000      0.493644    0.01221300    0.68694700
Se    3.07367000   17.52573000    3.59885000     -1.137103    0.01238900    0.11622300
Se    1.08869000   20.54104000    9.61126000      1.390643    1.38695700   -0.29207300
Se    7.53451000    1.99983000    1.83963000     -0.001905   -0.11446900    0.32141100
Se    5.65313000    1.70203000   12.06953000      0.206692   -0.21910200    0.25808600
Se    8.41112000    6.77498000    1.79505000     -0.054142   -1.34807200    0.09366000
Se   10.17395000    8.08400000   11.97468000     -0.118895    0.35453400    0.52658300
Se    7.34698000   11.82371000    0.39605000      0.659212   -0.39801100   -0.14349500
Se    5.84217000   14.71231000   13.72000000     -0.085105   -0.52941400   -0.24628500
Se    5.35838000   19.82935000    1.69715000      0.062540    0.19923600    0.07255200
Se    9.50693000   19.04126000   10.58201000      0.381087    0.49907600   -0.51150800
Se   14.54467000    3.70517000    1.23228000      0.268221    0.05959400    0.29626600
Se   12.25461000    0.73214000   10.88165000      0.233815    0.35567900   -0.73556900
Se    9.43960000    8.21035000   18.68163000     -0.709617    0.21534300    0.58746500
Se    9.85825000    9.41048000    8.72985000     -0.418596   -0.17791500    0.84371900
Se   12.34465000   12.27863000    0.59866000      0.393191   -0.46743700   -0.12745700
Se   12.70647000   11.16606000   10.41723000      0.464564   -0.26050800    0.03070900
Se   15.86347000   14.42720000    0.71614000      0.124257    0.07908800    0.74399200
Se   12.00317000   17.95738000    8.59859000     -0.491800   -0.12401400   -0.67326700
Se   16.57142000    3.42302000    2.59760000      0.150128   -0.16797300   -0.50163200
Se   14.60348000    0.99723000   10.70750000     -0.589920   -0.27040900   -0.14766900
Se   18.45852000    5.73955000   18.26659000     -1.456021    0.63943600   -0.56702400
Se   21.32979000    8.19534000   10.39047000      0.180056   -0.70190100   -0.20340100
Se   18.11723000   10.52196000    0.97849000      0.180241    0.21603900    0.18853700
Se   16.97216000   15.58264000    5.60069000      1.151713    0.10669200    0.26017800
Se   20.17146000   16.92942000    0.52417000      0.184620   -0.29458200    0.93468000
Se   18.02984000   18.22618000   11.18250000     -0.423336   -0.20837900    0.20856500
Se    3.60635000    4.73500000    2.27689000      0.745785   -0.65036800   -0.38036600
Se    2.93587000    6.38108000   11.78152000      0.586776   -0.03015000   -0.17400700
Se    4.02138000   10.51862000    1.93702000      0.474018    0.96623100   -0.63304600
Se    5.49681000   13.49976000   11.73572000      0.106677    0.20726800   -0.45429200
Se    5.00899000   13.74431000    3.56207000     -1.274446   -0.42448500    0.13990500
Se    3.32067000   17.05496000   10.82450000     -0.173812   -1.14198000    0.25729900
Se    4.53233000   22.87108000   17.78937000      0.356329    0.76839900    1.53860700
Se    6.14267000   21.12564000   10.35906000      0.564284   -0.48023200    0.21391100
Se   10.59182000    7.00193000    5.14079000      0.207776    0.06146600   -1.54374800
Se    7.37502000    2.92342000   10.65729000     -0.122779    0.61675600   -0.68876800
Se   10.32728000   11.09871000   16.99544000     -0.093953   -0.38785000   -0.22834900
Se    7.52173000   10.46706000    8.89476000      1.115532    0.56741600    0.44476100
Se   10.13867000   17.62712000    0.02866000      0.301107    2.20366100    0.61832500
Se   11.85689000   16.16189000   11.07359000      0.407541   -0.06230400    0.23204700
Se   14.00729000    0.64530000    1.62594000     -0.373264   -0.22144000    0.32260000
Se   12.19907000   21.32246000   12.52755000      0.500225   -0.65374800   -0.05092000
Se   12.26696000    7.34145000    1.25296000      1.454009   -1.04609600    0.56448000
Se   18.79754000    7.68905000   11.67931000     -0.037535    0.14739400    0.15002300
Se   15.36558000    8.48620000    0.56615000     -1.032090    0.27143000   -1.59356400
Se   15.28660000   10.40668000   12.69256000     -0.065235   -0.17038800    0.07706700
Se   19.02741000   13.99005000    3.22275000     -0.153626   -0.83693800    0.59563100
Se   15.05114000   13.98049000    9.56227000     -1.382454    0.73474000   -0.41935400
Se   17.37635000    0.10439000    0.12412000     -1.574389    0.36615100    0.82191900
Se   14.52882000   19.36099000   10.39173000     -0.473297   -0.47293600    0.35094600
Se   21.76942000    0.61776000    1.94065000     -0.688961    0.29276900    0.66634100
Se   22.53047000    5.42080000   11.64957000     -0.360798   -1.38729200    0.00593800
Se   20.36034000    6.65337000    1.85943000      0.907380   -0.76995500    0.28139600
Se   22.13649000   11.34716000    9.82252000      0.194797    0.65544300    1.27540500
Se   21.35475000   13.11905000    0.29873000     -0.195197    0.20085000   -0.05162100
Se   21.81052000   16.22224000   12.20769000      0.013035    0.34148200   -0.30628300
Se    1.18789000   21.05818000    1.35356000      0.395550   -0.08259500    0.87788700
Se   20.58051000   20.46084000   14.28204000     -1.250721    0.70660100    0.49178700
Se    4.42260000    4.71639000    8.70761000     -1.164703   -0.08387000   -0.55432300
Se    0.39799000    5.67672000   16.08679000     -0.499174   -0.34604600    0.39650800
Se    4.20840000    9.63613000    8.85089000     -2.118033    1.30894900    0.05045700
Se    2.21236000    9.35795000   17.56274000      1.088890    0.16019700    0.50087500
Se    3.58115000   18.51280000    7.07809000     -0.650144   -1.08936800   -1.51329600
Se   22.89294000   18.16079000   15.01703000      0.554629   -0.19130400    0.64266900
Se    4.40024000   22.58854000   13.03022000     -0.379593    0.13216500   -0.35617800
Se    8.68423000   22.76184000   17.09071000     -0.444761    0.22036700   -0.05439900
Se    6.58270000    4.92973000    4.37175000      0.264207    0.10475500    0.29238100
Se    6.02770000    4.25376000   18.78808000      0.986938    1.90952600    0.45228200
Se    6.24010000   10.40205000    5.25566000      0.360909    0.12405100    0.49279100
Se    3.65710000    7.11395000   15.12646000      0.318295    0.25300300   -0.07619400
Se    7.01125000   17.18337000    9.62543000     -1.437422   -0.28596500   -0.50850800
Se    6.80238000   16.15351000   18.58640000      0.995924   -0.56423500   -1.76057000
Se    8.19994000   18.50537000    6.59290000      0.223867   -0.06182500   -1.31396100
Se    6.87519000   21.82116000   19.30715000      0.334188   -0.06941300   -0.32038000
Se   16.27524000    1.43829000    7.45962000     -0.602420    0.19468900    0.19440500
Se   12.82070000    4.22002000   15.47770000     -0.206145    0.03182700   -0.25594600
Se   13.44047000    8.00445000   10.57461000      0.773306    0.51460100   -0.18911200
Se   14.10507000   11.23662000   16.17934000     -0.276394    0.14811600    0.76338400
Se   13.86508000   15.44689000    6.03459000      0.013706    0.01732500    0.28095500
Se   14.09427000   16.21403000   17.22088000     -0.472048   -0.13807500    0.44848600
Se   12.36749000   21.34246000    7.32497000      0.558910    0.10274000    0.21132200
Se   18.86543000   20.50510000   17.90807000     -0.234858    0.32302800   -0.93186300
Se   18.95846000    3.05420000    9.51623000     -0.110865   -0.23229500   -0.20265400
Se   20.25361000    2.52284000   18.39373000      0.803936    0.33994700   -0.39603700
Se   18.23265000   10.38013000    9.02211000     -0.748251    0.61052600    0.63858000
Se   17.67167000   11.52898000   16.22723000     -0.080301   -0.36471400    0.01615000
Se   15.23966000   16.37643000    9.68944000      0.365363   -0.04319100    0.23530600
Se   17.34187000   15.36080000   15.47660000      0.291295    0.95470100   -0.89531100
Se   18.89446000   17.92863000    9.02983000      0.161578   -0.09253400   -0.30330300
Se   20.24869000   20.38664000    1.48150000     -0.215473    0.82074800    0.85584400
Se    4.91908000    0.86002000    7.84729000     -0.112094   -0.57464800    1.00258500
Se    0.72059000    3.21619000   17.38320000     -0.505909    0.40696700    0.02255500
Se    6.71914000    7.44330000   10.80328000     -0.396627   -0.73104400   -0.57003200
Se    1.16370000    8.46209000    0.18996000      0.658429   -0.14488900    0.26372500
Se    4.09628000   14.49156000    7.76995000      0.865205    0.48238400   -0.28279600
Se    5.10064000   13.89394000   17.18032000      1.278189    1.29033100    0.36883700
Se    3.40154000   20.55731000   10.98407000     -0.258513   -0.27454000   -1.26529600
Se   23.00370000   16.86922000   18.82747000      0.428029   -0.20090100   -0.52288800
Se    9.20925000    0.30657000    9.20158000     -0.528920   -0.49904700    0.06380800
Se   11.21914000    4.25227000    2.39013000      0.418916   -2.95374900   -0.47421800
Se   11.94695000    4.73867000   11.43167000      0.112199   -0.63129700   -0.34692200
Se    5.94710000    8.06839000   19.12324000     -0.511469    0.16632700   -0.37346300
Se   10.80969000   13.17276000    8.26341000     -0.292091    0.67691000   -0.90664200
Se    8.38416000   12.33704000   17.35465000     -0.177441    0.18046400    0.36978700
Se   10.11209000   21.20389000    8.11435000     -0.641210    0.66854200    0.61145400
Se   11.88819000   15.33961000   16.72112000      0.247150   -0.43354800    0.39075600
Se   17.67625000   20.10033000    8.05460000     -0.464581    0.80200900    0.26334700
Se   15.20305000    4.36524000   18.37520000     -0.518377    0.56272300    0.41586600
Se   15.26541000    4.78603000    9.43122000     -0.527215   -0.25800500   -0.24187200
Se   11.57256000    9.10730000    0.01942000     -0.045005    1.12463500   -0.23833200
Se   16.64234000   12.42596000   10.19079000      0.367751   -0.07464700    0.15290700
Se   16.93780000   13.80505000   17.96795000     -0.728432   -1.05686700   -0.30574700
Se   15.51850000   18.67142000    5.99642000      0.363888    0.15001400   -0.77202400
Se   15.81107000   20.01462000    1.16883000      0.433157    0.41748500   -0.15320200
Se   21.61541000    0.47057000    8.34336000      0.986196    0.06154500    0.62566400
Se   22.98330000    0.42484000   15.63005000     -0.303014    0.64655800    0.43324500
Se   20.20805000    6.59403000    8.23047000      0.310345   -0.39096000    0.16447200
Se   20.76393000    8.38092000   18.48925000      0.846905    0.59014200   -0.36401300
Se   21.29796000    9.60338000    7.41235000     -0.238820   -0.08713800   -0.10803500
Se   21.97121000   10.36361000   17.24342000     -1.054150   -0.28442500    0.54028300
Se   20.57189000   16.26840000    6.16343000      0.896471    0.43049400   -0.25816500
Se   18.17880000   17.54634000   18.79446000     -1.414890    1.20966800   -0.11987100
Se    2.27594000    1.18165000    8.45508000     -0.228959    0.44452200    0.92934300
Se    3.72526000    3.17757000   16.00518000      0.376957    0.30520300    0.03253800
Se    1.38494000    8.21670000    7.09416000     -0.247911   -0.87069100   -0.09859200
Se    0.48349000    9.09572000   15.86599000     -1.212987   -0.85641400    0.62239300
Se    1.47252000   16.12057000    6.67999000     -0.497944   -0.70916900   -0.43069800
Se    1.27674000   13.19047000   17.19978000      0.202427   -0.21755100   -0.34285900
Se    1.27984000   18.81621000    4.90990000     -0.522105   -0.65671300   -0.19656900
Se    2.69999000   20.13848000   15.93887000     -0.438687    0.13208600   -0.70411900
Se    7.77365000    0.90642000    5.00606000      0.023187    0.30372000   -0.13129000
Se   11.87035000    1.01932000   18.37293000      0.081609    1.59459500   -0.31626800
Se    7.73437000    7.00378000    6.83529000     -0.706468   -0.25973100    0.66924000
Se    7.58931000    7.10058000   14.89940000     -0.076267   -0.04227900   -0.29535800
Se    7.76960000   13.76786000    6.22096000     -0.698463   -0.23024300    0.23268900
Se    8.10832000   16.65326000   14.84192000     -1.341904    2.01638700   -0.61471700
Se    5.11403000   20.29114000    6.54791000      0.286920    0.27865100   -0.25780800
Se    9.08852000   14.81844000   15.47528000      0.745969   -1.47988300    0.97882000
Se   14.60147000   20.97957000    5.83387000     -0.095745   -0.21314200   -0.10065600
Se   15.14671000    1.29808000   16.33995000      0.246287    0.19363300    0.10147900
Se   12.08366000    6.48194000    7.60315000     -0.398427   -0.23165800   -1.34875800
Se   11.23362000    7.26424000   15.53585000     -0.113453    0.02789200    0.46985600
Se   13.11673000   11.19068000    5.81515000      0.347058    0.51606700   -0.34591000
Se   13.77094000   13.53974000   13.16859000      0.061365    0.20213500   -0.22698800
Se   10.22684000   15.53434000    5.30144000     -0.295412    0.37017000    0.01217800
Se   12.72379000   20.01754000   18.87505000     -0.213228    0.04305100    1.11590100
Se   20.70915000    2.11755000    5.97076000      0.282070   -0.13043600    0.25698500
Se   19.43810000   22.59500000   16.27850000     -0.896760   -0.68170600   -0.26318500
Se   17.34291000    4.74215000    6.39194000     -0.285419   -0.31453600    1.37528100
Se   17.71263000    6.48480000   15.77424000      0.264436    0.01874200    0.75395300
Se   20.03597000   10.39205000    3.93892000      0.437937   -0.54016600   -0.17614000
Se   17.16011000   12.79940000   13.16664000     -0.215789   -0.14960100   -0.23023300
Se   18.52893000   19.94297000    4.65633000     -0.604307   -0.16439200   -0.64689300
Se   17.10211000   22.29929000   14.13568000      0.327290    0.49276500   -0.89520200
Se    3.60871000    6.73360000    7.08207000     -0.532230    0.39343900   -0.66284000
Se    4.06317000    4.10524000   12.43435000      0.479432    0.52671500   -0.46964700
Se    1.88525000    7.55818000    3.47368000      0.136722    0.58144800   -0.01757500
Se    3.85409000   10.92281000   14.95263000      0.473034   -1.95583900   -0.46650400
Se    5.90077000   12.26850000    7.14345000      0.362442    0.32134800   -1.02890300
Se    4.07439000   17.69928000   18.85656000     -0.573216    0.49916700   -0.46669400
Se    2.16465000   21.42519000    5.89900000     -0.194355    0.97500000    0.11460200
Se    5.16533000   22.05447000   15.68834000      0.344962    0.75293200   -1.34382000
Se   10.83770000    2.31067000    7.04463000      0.040840   -0.11649900    0.18561300
Se   10.08727000    4.25299000   16.25165000      0.505421   -0.30929200    0.49960300
Se   10.17494000   10.26553000    6.61927000      0.319993    0.54660300   -0.13353300
Se    7.59058000   10.81393000   14.44845000      0.045397    0.14798400    0.41769600
Se    8.78808000   15.29269000    8.87141000      0.422040    0.08189800   -0.57588700
Se   11.42291000   18.29892000   15.69673000     -1.277604    0.18843800    0.85078700
Se    8.33219000   19.07450000    3.51636000     -0.144794   -0.11217000    0.30797100
Se   10.41888000   21.16738000   16.78606000      0.081645   -0.54570800   -0.55247000
Se   13.85083000    3.82992000    4.89265000     -0.114733   -0.22986000    0.98098100
Se   18.51800000    2.92955000   14.91457000     -0.028469    0.28583900   -0.34192400
Se   15.47035000    8.25639000    7.06093000      0.235584    0.51374800    0.44363600
Se   16.23625000    8.85170000   14.30714000      0.496814   -0.10734400   -0.57052100
Se   16.92538000   12.32184000    6.50321000     -0.870784   -0.21736800   -0.36792200
Se   15.80416000   19.27605000   16.61273000     -0.192155   -0.60329900   -1.16461200
Se   15.86377000    0.03492000    5.69291000      0.339912    0.32052300   -0.58960700
Se   18.91103000    3.04816000   11.99527000      0.468334   -0.12183500    0.21227200
Se    0.86574000    4.62721000    7.70686000     -0.313137   -0.44539200    0.18681500
Se   22.87813000    3.30330000   13.46202000     -0.086190    0.17015200   -0.60071700
Se   20.03579000   12.55961000    7.17395000      0.199581   -0.02634000   -0.49916000
Se   20.74724000   13.39971000   16.29060000      0.010068   -0.11084500   -0.06839500
Se   22.38833000   12.62325000    6.09957000     -0.490202   -0.68910000   -0.45384600
Se   18.99593000   18.13816000   14.72714000     -0.310553    0.10107100    0.58300600
Se   22.07599000   19.38357000    7.82289000     -0.419017    0.42090100    0.25028200
Se   22.46428000   20.18330000   17.83246000     -0.133774   -0.58886900   -0.22427000
Se    3.30623000    2.42943000    5.30092000      0.089733    0.49221000    0.25469600
Se    7.16299000    2.21351000   16.56570000      0.212350    0.30826200   -0.26183300
Se    2.63614000    3.50224000    0.26963000     -0.414835    0.39337700    0.67077900
Se    2.35029000    9.90476000   10.75148000      0.216162   -0.16714900    0.57733800
Se    1.16127000   12.25512000    2.93143000     -0.192360   -0.53140200   -0.48152200
Se    2.86768000   16.12003000   14.53401000     -1.133228    1.20508700    0.62482000
Se    4.11381000   15.99506000    1.22493000     -0.275949   -0.20937700   -0.07227700
Se    4.78066000   19.37134000   13.26055000      0.204024   -0.23736300    0.01585400
Se   10.38249000    1.17541000    3.93783000      0.203664    0.44246500   -1.08509600
Se   11.10499000    1.03300000   14.01210000     -0.733959    0.64352100    0.64903100
Se    9.77708000    9.60877000    3.32971000      0.004374   -0.01401000    0.51261500
Se    7.50160000    8.61558000   17.03023000     -0.175378    0.12053000    0.28762100
Se   10.30885000   12.80185000    3.39192000      0.144974    0.00474800    0.04332400
Se    9.35658000   13.43059000   11.49616000      0.438788   -0.24614400    0.96014300
Se    9.00453000   20.83187000    0.73455000     -0.290643   -0.50858800   -0.37602700
Se    9.66995000   18.39241000   14.03276000      0.578098   -0.00787200    0.15206200
Se   19.04236000   21.94424000    7.37334000      0.016299    0.24523200    0.79729600
Se   14.55717000    2.32330000   12.99077000     -0.373213    0.64743800   -0.68647900
Se   15.35885000    6.57698000    3.74510000      0.400904   -0.00418400   -0.04040600
Se   15.15797000    5.55242000   15.73253000     -0.327688    0.63727900    0.07998700
Se   15.19112000   12.28453000    1.76400000      0.314661    0.44329700    1.03287700
Se   15.14019000   17.27345000   12.75462000      1.640856   -0.75382300   -0.35283800
Se   16.56312000   16.52255000    2.92577000     -1.808459    0.74751200   -0.66682300
Se   14.17440000   20.18129000   14.67760000     -0.702043    0.22390200   -0.15638600
Se    0.08985000   22.34116000    5.02524000      0.516456    0.56300600   -0.22830300
Se   21.74064000   22.89316000   13.66343000     -0.314891    0.42746000   -0.55874400
Se   19.78222000    2.81356000    3.94176000     -0.347332    0.86435400   -0.77338100
Se   19.75432000   10.21284000   14.21786000     -0.185644   -0.68601100    0.20393500
Se    2.52297000   11.60989000    5.52515000      0.244976   -0.50096900   -0.25108600
Se   21.77577000   14.89531000   14.65278000     -0.219678    0.74372900    0.79666600
Se   22.21086000   19.11699000    3.62815000      0.635188   -0.59246300   -0.58206200
Se   21.57929000   20.12792000   12.01157000     -0.268636   -0.63828100    0.29159900
Se   22.83425000    5.03846000    5.52009000     -0.014076    0.10779900   -0.10291300
Se   20.97711000    5.60178000   15.71410000      0.511705   -0.15605800    0.59870100
Se   21.93361000    9.74244000    2.35032000     -0.353792    0.39979300    0.44607800
Se    0.35638000   11.93577000   13.57836000      0.250457   -0.17121000   -0.35033700
Se    2.21281000   13.75392000    1.37286000     -0.590884    0.57740300   -0.09722400
Se    2.19495000    0.44088000   13.36715000      0.690194   -0.20326300   -0.18562800
Se    4.09830000   22.83888000    2.11545000      0.184684    0.25145500    0.31262500
Se    5.92044000   19.79934000   15.29876000      0.328475   -1.53388700    0.37745800
Se    8.79321000    5.14964000    8.11959000     -0.393021    0.06245100   -0.22714500
Se    7.84608000    5.43306000   13.18596000      0.242272   -0.55000200   -0.35743900
Se    4.57492000    6.69560000    4.77222000      1.360380    0.57391700   -0.00020500
Se    7.81693000   11.56285000   12.34193000     -0.355907   -0.39041200   -1.26285600
Se    7.81480000   15.11531000    2.69029000      0.339187    1.11758200   -0.83638200
Se   11.94365000   14.94722000   13.61767000      0.103566   -0.06483600   -0.38024900
Se    6.88154000   22.67716000    6.83142000      0.325657   -0.39091300    0.36311700
Se    7.98191000   21.66569000   13.75797000      0.108306   -0.00044300   -0.57238900
Se   13.01937000    1.41947000    3.60567000     -0.400064   -0.20744700   -0.21645900
Se    9.38951000    2.16657000   12.34539000     -0.000116   -0.02000400    0.85133700
Se   14.49756000   10.06611000    4.23269000      0.816034   -0.60137400   -0.26001600
Se   11.30349000   10.84768000   13.31173000      0.247308   -0.72208300   -0.03610500
Se   12.28532000   15.58692000    2.10596000      1.492250    0.85466300    0.33281100
Se   13.19687000   17.83636000   14.00144000     -0.390853    0.32032900    0.18264100
Se   11.92135000   19.64202000    3.60571000     -0.126718   -0.31619300   -0.22309400
Se   13.62600000   22.97240000   14.94543000      0.420586    0.30382000   -0.26270100
Se   18.21799000    3.34493000    0.51587000      0.135172    0.13627300    1.31396100
Se   16.60532000    7.01317000   12.39067000      0.059305    0.07869000    0.54823300
Se   18.64567000    8.39931000    4.98475000      0.071534    0.60306700   -0.00362700
Se   19.73351000   12.96500000   11.80601000      0.644484    0.79194600    0.27589400
Se   22.37217000   15.37988000    2.92970000     -0.424226    0.63269900    2.60842000
Se   19.10072000   15.48890000    9.45172000      0.100094   -0.69220900   -0.00190500
Se   19.79078000   22.06397000    3.35196000      0.466757   -1.11367100   -0.54247700
Se   17.31102000   21.85167000   11.21163000     -0.487898    0.20262300    0.05872300
