384
23.00800000 23.00800000 19.32000000
Ge    5.97013000    5.16757000   10.60727000     -0.277157   -0.03307400    0.18246900
Ge    3.63723000    8.24262000    1.71809000     -0.673548    0.35026200   -0.46937600
Ge    1.76398000   10.60718000    7.64881000      0.224164   -0.49186900    0.40655700
Ge    5.94067000   10.83268000   17.53979000     -0.498588    0.13621800    0.21536600
Ge    5.19539000   15.27011000    9.74390000     -1.136633    0.58570600    1.66119000
Ge    7.58847000   17.62083000    1.31828000     -0.120464    0.24052400    0.36432800
Ge    6.68943000   19.95958000    8.25243000      0.569073   -0.65037700   -0.68131800
Ge    4.71848000    2.05693000    0.09462000      0.191893    0.45336900    0.61835300
Ge    9.28165000    6.06298000   11.06754000     -0.664624    0.43726700    0.55325400
Ge   10.62648000    6.73890000    3.02044000      0.666314   -1.28141900   -2.01990200
Ge   12.00522000   13.41571000   10.57232000      0.263458   -0.82785900   -1.23525300
Ge   12.18159000   12.65391000   17.21141000      0.071841   -0.00925300    0.46445000
Ge   10.13437000   16.97699000    7.39359000     -1.724662   -1.12404900   -1.84706900
Ge   14.48114000   16.93851000    0.94549000     -1.077524    0.49705700   -1.64988900
Ge   10.42315000    2.30628000    9.71923000     -0.010507    1.40941700   -0.88890000
Ge   16.56985000   21.13794000   18.23058000     -1.638229    0.90783400    0.76131300
Ge   20.11172000    5.44792000   11.00687000     -1.267721   -0.34034700   -0.49544900
Ge   18.32693000    8.27079000   18.06141000     -0.268391    0.57292000    0.15046400
Ge   22.06792000   14.19455000   10.01641000     -0.865386   -0.72259400   -0.23650300
Ge   16.10514000   11.01605000   19.20063000     -0.393147    0.04588900   -0.77917400
Ge   14.33187000   17.32057000    7.72829000     -0.038363    1.46559000   -0.05743800
Ge   18.94067000   14.51617000    0.70199000      0.721205    0.14290800    0.65641200
Ge   19.44520000    0.57493000    9.53678000     -0.310834    0.48895400    0.24998800
Ge   17.62259000    1.75763000   17.38728000      0.232530   -0.33622400    0.17641800
Ge    0.88391000    7.52418000   10.55021000     -0.035971   -0.15721500   -0.05396100
Ge   22.82999000    2.92910000    0.63905000     -1.415832   -0.51098000    0.40430900
Ge    1.11244000   11.96084000   11.05757000     -0.748019    0.84047500    0.16553200
Ge    0.42489000   11.36491000    0.73133000     -0.535743   -0.62616600   -0.17203900
Ge   22.46488000   15.12920000    7.43537000      0.004837    0.07167700   -0.73248500
Ge    0.73265000   15.35778000   16.27927000      0.674111    0.56462600   -0.20775100
Ge   20.64780000   21.27451000    8.94802000      0.554539   -0.81088500   -0.08541700
Ge    3.52215000   21.25415000    0.21620000      0.178911   -0.22595800    0.50296600
Ge    6.37164000    8.44076000    8.48958000     -0.920698    0.78844100    1.14564700
Ge    1.04068000    5.54462000   18.61656000     -0.165560    0.62502700    0.62083500
Ge   22.05790000    7.83917000    5.74290000      0.528174   -0.08860500   -0.13557600
Ge    3.33304000   12.64900000   16.10651000      1.372759   -0.23837800   -0.67913100
Ge    5.42082000   15.96690000    3.55221000      0.456362   -0.52111800    0.38455000
Ge    1.97786000   19.57991000   17.90759000      0.146819   -0.26887200    0.42068100
Ge    4.35736000   18.73990000    9.40301000     -0.164580   -0.54161000   -0.37321400
Ge    2.58619000    0.81351000   15.70431000      0.393000   -0.34503900    1.84252200
Ge    8.37031000    2.53678000    7.41965000      0.051949   -0.41769700   -0.18710500
Ge    8.19732000    3.07921000   18.91871000      0.212759    0.05934900   -0.07390600
Ge    7.42014000   12.94604000    3.85116000      0.314663   -0.18529400   -0.05863000
Ge    7.62808000    9.07804000    1.70293000      0.451165   -0.39206900   -0.32131800
Ge    5.34012000   16.70704000    6.46084000     -0.057826   -0.25808500    0.26991600
Ge    9.64725000   15.47873000   18.65695000      0.231318   -0.02530000   -0.30494000
Ge   10.92749000   22.22818000    5.80484000     -0.844795    0.26381000   -0.48850800
Ge   10.43655000   21.75243000   14.17863000      0.469596   -0.03367100    0.30653500
Ge   12.90657000    5.79286000    9.83104000      0.582918    0.44642200   -1.17834500
Ge   13.88299000    6.72058000   18.28390000     -0.446110    0.02242400   -0.48199600
Ge   12.94361000    9.37733000    8.46466000      0.493806   -0.81794200   -1.10571800
Ge   15.35769000   13.17408000   15.22490000      0.957232    1.09828200    0.05807400
Ge   14.11958000   17.23331000    3.82051000     -0.419010    0.00222900    0.49011300
Ge   13.63102000   19.33231000    1.82428000      0.208066   -0.55195300   -1.04609300
Ge   15.32468000   21.40451000    9.34715000      0.389099    0.12426300    0.46017600
Ge   16.56820000    1.83566000   14.24215000     -0.072736   -0.59907200    0.23671500
Ge   21.19984000    4.03909000    8.26726000     -0.182114    0.07276400    0.09418900
Ge   21.01082000    5.27974000   18.29091000     -0.158814    0.35301600    0.71058400
Ge   15.71401000   11.06148000    8.37389000      0.362064   -0.61155800    0.55360300
Ge   18.94736000   15.19316000   17.46186000     -0.333892    0.79272000   -0.42793900
Ge   18.83759000   16.40986000    3.94845000      0.031300   -0.02128900   -0.40671400
Ge   21.06266000   17.28418000   16.50918000     -0.493966    0.03344000   -0.00263900
Ge   22.55616000    1.75878000    4.14713000      0.006808    0.47581300    0.25057800
Ge   19.87502000   22.61999000    0.00754000     -0.900641    0.28180700    0.23987700
Ge    5.47034000    3.20878000    7.10948000     -0.378408   -0.17839900   -0.29453900
Ge    2.57316000    4.90863000   14.45300000      0.460290    0.00937100   -0.28820800
Ge    2.75102000    4.92071000    4.52246000     -0.603569    0.60508400    0.00269400
Ge    1.57491000    9.42057000   13.45840000     -0.039336    0.84086700    0.62709700
Ge    2.14556000   14.86786000    3.81371000     -0.684679   -0.05102900    0.54089900
Ge    0.52143000   17.72483000   12.58408000      1.051530    0.93625600    0.08284400
Ge    0.68078000    2.26595000    6.79872000      0.819860   -0.91872000   -0.51553700
Ge    5.02677000   16.89036000   16.62449000      0.503638   -0.95103300   -0.58493100
Ge    9.07687000    3.34316000    3.66953000      0.668685   -0.01316400   -0.66825000
Ge   10.27384000    1.69508000   16.53512000     -1.750669    0.41574000    1.25277800
Ge    8.52065000    8.84964000    5.49726000      0.596042    0.26246000   -0.30740100
Ge    9.12674000    8.84659000   14.18654000     -0.036666   -0.04443500    1.37491500
Ge   12.06334000   13.95468000    5.91160000     -1.549087   -0.53555900    0.09422300
Ge   10.34400000   13.16215000   13.75682000     -0.394625   -0.17474000    0.51967700
Ge    6.98417000   21.91536000    2.27270000     -0.395126   -0.35293400    0.36510300
Ge    8.48183000   18.99543000   17.93102000     -0.598434    0.64544600    0.13091600
Ge   14.04782000    1.73789000    6.81462000     -2.107211   -0.00728900   -0.75544400
Ge   10.97594000    5.24136000   14.10314000     -0.863143    0.37315700   -0.58672800
Ge   14.74733000    5.83031000    6.53142000      0.674555   -0.41245000    0.05789800
Ge   13.26414000    9.80584000   14.25320000     -0.168757   -0.38372800   -0.44667500
Ge   15.34549000   12.95051000    4.91756000     -0.099637    0.19189700    0.46771700
Ge   15.64297000   17.20881000   15.00357000     -0.762568   -0.38834800    0.64615100
Ge   10.37215000   17.78261000    2.96929000     -0.059940   -0.28902000    0.27493000
Ge   12.94181000   22.13871000   17.05738000     -0.071937   -0.23733100    1.26576700
Ge   17.34616000    5.24354000    4.00172000      1.735652   -0.81217400    1.04800200
Ge   21.42463000    1.82990000   12.04064000     -0.660883   -0.30135700    0.26666700
Ge   18.81107000    8.52105000    7.47326000      0.094836    0.23165000    0.06280700
Ge   19.14553000   12.47475000   14.85365000     -1.289069   -0.43985500   -1.02997200
Ge    0.11610000   15.01154000    0.74025000     -0.261347   -0.22947200    1.12989600
Ge   18.24428000   15.07292000   12.22020000      0.139988   -0.67419600    0.14438900
Ge   21.36399000   20.42110000    5.15219000     -0.820801   -0.21853700   -0.14086000
Ge    0.08544000   20.59253000   15.28187000      0.400626   -0.88023200    0.31070000
Ge    5.38268000    2.91050000    3.34189000      0.125921   -0.38512600    0.22681200
Ge    5.85945000    4.79742000   16.08163000     -0.187038   -0.95301000    0.27044400
Ge    3.41168000    9.49678000    4.35952000      1.103077    0.14497100   -0.06912400
Ge    4.39092000    8.26967000   13.10301000      0.302033    0.45844500   -1.82194700
Ge    5.90034000   14.03615000    0.63180000      0.252597    0.38804100    0.07453600
Ge    3.41446000   13.70900000   13.87098000      0.249944    0.68847200   -0.61885700
Ge    4.29244000    0.26946000    5.65003000     -0.074000   -0.89232500   -0.16060400
Ge    7.20814000   19.50524000   12.12062000      0.408741    0.25901900   -0.25697100
Ge   11.43688000    4.44128000    5.70183000     -1.045954    0.02924000    0.30012100
Ge    7.50308000    1.29123000   13.78513000      1.384146   -0.80379600    1.76791700
Ge   12.07274000   10.66395000    3.41621000      0.027033    0.33004800    0.24362900
Ge   13.55529000    6.95545000   14.15270000     -0.090073    0.86451300    0.40216600
Ge   10.96528000   13.81500000    1.21716000     -0.160640    0.45460100    0.50721600
Ge    9.36183000   16.59248000   11.09610000     -0.632921    0.18507500   -0.12672900
Ge   11.84064000   22.10822000    0.79107000     -0.735579    0.29274100    0.08567000
Ge   11.98090000   18.79768000   11.64152000     -0.486204    0.96698200   -0.11479400
Ge   21.97281000   22.47161000   17.80598000     -0.715972   -0.80841300    0.15241300
Ge   14.56135000    4.88510000   12.39450000     -0.025728   -0.28933400   -0.34803700
Ge   16.83222000    8.00013000    2.37210000     -0.000606    0.03495400   -0.21549400
Ge   16.13727000    7.22847000    9.39781000      0.006322    0.64132500    0.49273400
Ge   17.28651000   11.35776000    3.19168000      0.227634    0.47797800    0.68266500
Ge   18.67140000   14.75278000    6.98888000      1.460823    0.05982600   -0.27700300
Ge   17.96867000   18.97796000    2.01220000     -0.166480   -0.33533400    0.56214400
Ge   16.19140000   19.92171000   12.74915000     -0.334322   -0.25600800   -0.21852100
Ge    1.53447000    0.33924000    2.03216000     -0.482841    0.72027100    0.04326800
Ge    0.08213000    0.54390000   10.35606000      0.331940   -0.10287600    0.11649500
Ge   20.04937000    5.22124000    3.92094000     -0.195192    1.00886000    0.85174000
Ge   21.32310000   10.62601000   12.41620000     -0.351323    0.42958100    0.04260900
Ge   21.71936000   12.95779000    3.45722000     -0.056023   -1.02920300    0.37510000
Ge   22.96739000   18.72477000   10.05678000      0.514790    1.05111700   -0.62673800
Ge    3.20647000   20.41577000    3.47448000     -0.689684    0.04444100    0.03494000
Ge   20.03932000   17.79270000   12.51873000     -0.523253    2.61076800    0.71655200
Se    0.89960000    0.68178000   18.61208000      0.906346    0.01212800    0.56517500
Se    1.56647000    2.59713000   10.35107000     -0.761458    1.17952400    1.54930800
Se   22.75723000    5.48769000    1.92516000     -0.226990    0.04921000   -0.12620000
Se   22.38134000    8.29329000   12.75266000      0.025989   -0.28994700   -0.05503600
Se    3.50225000   11.84635000   19.13707000      0.195280   -0.53701900   -1.12789000
Se    1.52012000   14.14271000    9.88908000      0.637766   -0.45036700    0.66309800
Se    2.93108000   17.26956000    3.46951000     -0.679348    0.55674600   -0.30820400
Se    1.44756000   20.92970000    9.37563000     -0.032153   -1.13124600    1.03605100
Se    7.45188000    1.96026000    1.76137000      0.172918    0.40789100   -0.13081100
Se    5.75527000    1.54157000   12.33492000     -1.081477    0.42505900   -1.75527400
Se    8.58628000    6.75934000    1.97382000     -1.676632   -0.40052200   -0.43944900
Se    9.93816000    8.25011000   12.16987000      0.817423   -0.54148400   -2.34500100
Se    7.46524000   11.86216000    0.11215000     -0.455849   -0.80738200    2.25230000
Se    5.94295000   14.37893000   13.75702000     -0.552136    0.15207800    0.07989000
Se    5.61040000   19.65568000    1.70255000     -0.510136    0.87456700    0.03360200
Se    9.51419000   19.29698000   10.53275000      0.061541   -1.15634400    0.24140000
Se   14.48239000    3.99740000    1.17364000      0.143579   -0.48935000    1.04494400
Se   12.05305000    0.97366000   10.74820000      1.462524   -1.27939100    0.54832300
Se    9.45821000    8.47390000   18.58053000     -0.210223   -0.68901200    1.03570200
Se    9.73967000    9.42892000    8.86867000      1.257354   -0.45483200   -0.48872800
Se   12.57733000   12.22624000    0.29586000      0.368192    0.17307300   -0.36142700
Se   12.65893000   10.80963000   10.25183000     -0.032818    1.76767200    1.07063400
Se   15.84764000   14.51682000    0.86420000      0.404725   -0.23788100   -0.29184800
Se   11.97792000   17.80665000    8.43901000      0.633024    1.11085800    1.01890600
Se   16.91589000    3.13753000    2.64030000     -0.952855    0.17483100   -0.25311100
Se   14.48889000    0.72349000   10.61414000     -0.452779    0.08638800   -0.32413400
Se   18.33488000    5.72299000   18.39481000     -0.094432    0.04493700   -0.47259500
Se   21.44373000    8.21071000   10.20337000     -0.129697   -0.39257500   -0.39368800
Se   18.14551000   10.62653000    1.07811000      0.744936   -0.47533600   -0.57516600
Se   17.02705000   15.54864000    5.45383000     -0.725702    0.12433200    0.18523600
Se   20.09667000   17.08444000    0.62640000     -0.658203   -0.22190800    0.27219200
Se   17.96376000   18.04870000   11.36635000     -0.415403    0.23152900   -0.42889900
Se    3.65842000    4.41943000    2.15704000      0.549657    0.48819200    0.07253000
Se    3.23411000    6.28895000   11.75294000     -0.432008    0.04702400   -0.31337000
Se    3.72776000   10.84567000    1.85473000      0.931924   -1.39752400    1.23783700
Se    5.51408000   13.69210000   11.53427000     -0.164420   -0.83133400   -0.21557600
Se    4.97581000   13.43384000    3.66938000     -0.767185    0.92633000   -0.18410700
Se    3.41712000   16.85160000   10.68234000      0.083417   -0.23061300   -0.01457200
Se    4.75269000    0.13896000   17.89928000     -0.310040    0.05869400    0.52179900
Se    6.14212000   21.02582000   10.28698000      0.397270    0.86927400    0.98898500
Se   10.57128000    7.10734000    5.20246000      0.525227    0.16591000    1.43055700
Se    7.33555000    2.98834000   10.75146000      0.340591    0.27597400   -0.41850600
Se   10.30387000   11.15273000   16.88255000      0.386097   -0.69374600   -0.54919100
Se    7.77572000   10.45452000    9.14473000     -1.442162    0.28433900    0.24698400
Se   10.21813000   18.04316000   19.25808000      0.398577   -1.61363300    0.86119700
Se   11.94127000   16.19760000   11.14503000      0.154536   -0.26830200   -0.59598100
Se   13.81216000    0.66731000    1.48577000      0.245315   -0.03194200    0.12085000
Se   12.15529000   21.32156000   12.52613000      0.167769   -0.13995100    0.53186500
Se   12.15212000    7.46131000    1.23205000      0.450761    0.41011600   -0.50441100
Se   19.12219000    7.59602000   11.71928000     -0.141974    0.71482800    0.28146600
Se   15.20422000    8.33854000    0.26159000      1.120398    0.43478100    0.60297000
Se   15.29160000   10.47362000   12.88850000     -0.722591    0.34512300   -0.25644700
Se   18.69665000   13.93401000    3.08228000      0.460790   -0.25382500   -0.06129800
Se   14.94311000   14.05419000    9.35977000      0.101776    0.35075900    0.46794700
Se   17.20178000    0.30215000    0.12951000      0.189376   -0.19989900   -0.12556000
Se   14.45857000   19.46998000   10.66451000      0.289522    0.52327800   -0.21427900
Se   21.84629000    0.57234000    2.04511000     -1.037360   -0.02390600   -0.11062800
Se   22.44675000    5.35478000   11.43999000      1.002343   -0.69586800    0.16548700
Se   20.52340000    6.45666000    1.83148000      0.488430   -0.38979000   -0.45914600
Se   22.26342000   11.45009000    9.52545000     -0.214659    0.77309600    0.95313900
Se   21.66972000   13.21079000    0.05378000     -0.351755    0.06045300    0.26075100
Se   21.67102000   16.22895000   12.40739000      0.298815   -1.83696100   -2.16756800
Se    1.24550000   21.01888000    1.60374000      0.574353   -1.00089600    0.35102300
Se   20.43163000   20.47002000   14.46786000     -0.940571    0.23409100    0.28009000
Se    4.13840000    4.67161000    8.74120000      0.473561   -0.19005500    0.08376900
Se    0.43520000    5.75682000   16.03632000     -0.080896    0.54746900   -0.28527300
Se    4.02454000    9.52670000    8.70231000      0.484189    0.15508800    0.27566800
Se    2.07857000    9.31262000   17.47185000     -0.004834   -0.20391300   -0.62278600
Se    3.30526000   18.25464000    6.83435000      0.745065    0.05305000    0.38181100
Se   22.86243000   17.97131000   14.96750000      0.708244    0.72909200    0.57178900
Se    4.52424000   22.64850000   13.27088000     -0.666239   -0.25849500   -0.22011000
Se    8.49574000   22.70354000   17.12467000      0.805264    0.33043400   -0.36665400
Se    6.62484000    4.83758000    4.44054000      0.182725   -0.29383600   -0.01418800
Se    6.13110000    4.32928000   18.68718000     -0.286603    0.46999400   -0.33848900
Se    6.47427000   10.26658000    5.46811000     -0.477779    0.00683200   -0.16202000
Se    3.88714000    7.26101000   15.05969000     -0.537818   -1.91501400    2.19127600
Se    6.72247000   16.94767000    9.72328000      1.544888    0.98901300   -0.50964800
Se    7.22298000   16.08387000   18.37575000     -0.770676    0.05288300    0.04362300
Se    8.33638000   18.51266000    6.59044000      0.012034   -0.04038700   -0.00691400
Se    6.82413000   21.81591000   19.05198000     -0.176230   -0.06157400   -0.53099800
Se   16.21861000    1.51486000    7.43005000      2.353149   -0.15487100    0.23598100
Se   12.73242000    4.00326000   15.45207000      2.156558   -0.08998400   -0.64847800
Se   13.30455000    8.01182000   10.62215000      0.825676   -0.21216300    0.17408500
Se   13.98769000   11.31989000   16.14433000     -0.538355   -0.79713500    0.92649700
Se   13.66752000   15.69081000    6.30132000      0.827589   -1.16713500   -1.50967000
Se   13.99564000   16.25241000   17.19340000     -0.274425   -0.13704500   -0.56906200
Se   12.50642000   21.46848000    7.41808000      0.504931   -0.43784000    1.01951800
Se   18.74263000   20.40120000   17.83809000      1.972365   -0.12747100   -0.88234300
Se   18.93858000    3.09454000    9.56474000     -0.378142   -0.10188700   -0.73934000
Se   20.64173000    2.80903000   18.45380000     -0.392292   -0.38714800    0.04980900
Se   18.18453000   10.39913000    9.14808000     -0.655328   -0.03497700    0.16588400
Se   17.59347000   11.49174000   16.41580000     -0.203100    0.04383900    0.42481200
Se   15.09674000   16.48756000    9.78751000      0.580670   -1.23086700    0.49831600
Se   17.36372000   15.65355000   15.17807000      1.174526   -0.59224900   -0.16733100
Se   18.99649000   17.84813000    9.19727000     -0.117341    0.01632300   -0.24292200
Se   20.06576000   20.54593000    1.46041000      0.035575    0.40757600    0.65231000
Se    4.88261000    0.76659000    8.10152000      0.199921    0.34020500    0.17753300
Se    0.79929000    3.33941000   17.41658000     -0.213816   -0.00979900    0.05892700
Se    6.51683000    7.67362000   11.08114000      0.237013   -0.75575100   -1.30863900
Se    0.87730000    8.62017000    0.03362000      0.971983   -0.41374500    1.07989100
Se    4.37840000   14.35461000    7.85338000     -0.232652   -0.08393700   -1.32777800
Se    5.08183000   13.96695000   17.39749000      0.161291    0.22167000   -0.89728800
Se    3.57080000   20.50086000   11.05443000     -1.140524    0.42263100   -0.55615800
Se   23.00429000   16.89416000   18.61516000      0.627625   -0.17138900   -0.31831500
Se    9.19947000    0.20683000    9.36285000     -1.343107    0.61561700    1.00195800
Se   11.42365000    4.32202000    2.40635000     -1.216010    0.86650200    0.69242000
Se   11.67424000    4.75319000   11.49389000      0.270607   -0.67560300    0.19012000
Se    5.72193000    8.10582000   19.02456000     -0.232525    0.16095600    0.20977300
Se   10.61951000   13.18685000    8.17602000      0.441936    1.02997900    0.31623300
Se    8.41832000   12.41798000   17.48140000      0.280952    1.18151100   -1.80478700
Se   10.02725000   21.45376000    8.22880000      0.902997   -0.86427200   -0.75329100
Se   11.81124000   15.08284000   16.71748000      1.209564    0.36173400    0.10752800
Se   17.76460000   19.98293000    8.22916000      0.162529    1.30127600    0.00811000
Se   14.98997000    4.47316000   18.31686000      0.405042   -0.37136800    0.33202400
Se   15.21751000    4.81718000    9.66829000     -0.443735   -0.39145300    0.00946200
Se   11.65284000    9.39345000   19.07656000      0.487042   -0.04955200    0.91780700
Se   16.86161000   12.36083000   10.32224000     -0.567845    0.35139700   -0.42815400
Se   16.91187000   13.76369000   17.97154000     -0.598178   -1.21509600   -0.35194300
Se   15.49075000   18.75006000    5.73600000      0.476329   -0.29639100    0.24587300
Se   15.90218000   20.43819000    1.41253000     -0.035892    0.39673600   -0.01140400
Se   21.68073000    0.91903000    8.24940000      0.334927   -0.61089000    0.38303600
Se   22.98965000    0.33889000   15.78348000     -0.339061    0.57768400   -1.13646000
Se   20.14101000    6.42339000    8.29760000      0.168429   -0.46788600    0.04790900
Se   20.76981000    8.41839000   18.79374000      0.464487    0.98093000   -0.78528100
Se   21.23443000    9.39116000    7.50401000      0.001479    0.30834100    0.01757900
Se   21.66427000   10.53519000   17.32949000     -0.158892   -1.43537100    0.33939400
Se   20.36292000   16.51910000    5.87345000      0.349799   -0.81728000    1.43699000
Se   18.08346000   17.70624000   18.70894000      0.148252   -0.08167000    0.22651500
Se    2.32214000    1.28919000    8.70919000      0.320422   -1.27090800   -1.69678900
Se    3.52819000    3.18773000   16.18129000      0.664268    0.92603800   -0.23663500
Se    1.48984000    8.09699000    7.17750000     -1.201942    0.09710600   -0.07629800
Se    0.17732000    8.86639000   15.98862000     -0.115938    0.75393400    0.26243300
Se    1.46221000   16.06563000    6.40220000     -0.059113   -0.40873900    0.03572500
Se    1.49788000   13.29438000   17.30801000     -1.568793   -0.34357600    0.73520900
Se    1.12325000   18.97196000    4.71046000      0.844861   -0.63264900   -0.29358800
Se    2.86972000   20.18892000   15.85245000     -1.040248   -0.10040300   -0.11397500
Se    8.08289000    0.74172000    5.05571000     -0.527357    0.15759200    0.56092000
Se   11.84308000    1.42598000   18.24960000      0.730019   -1.06467300    0.49503400
Se    7.62624000    6.85949000    6.96976000     -0.364812   -0.03446300   -0.12107300
Se    7.47267000    7.03787000   14.82287000      0.161997    0.33224600    0.13897900
Se    7.81830000   13.68822000    6.26106000      0.191531    0.29483400   -0.74040100
Se    8.03186000   16.88268000   14.55917000     -0.383726   -1.05016100    0.42399000
Se    4.93768000   20.50413000    6.63037000     -0.401024   -0.57263800   -0.65906200
Se    8.98785000   14.93050000   15.89361000     -0.534266    0.53608000   -0.96687800
Se   14.36584000   20.79336000    5.63831000     -0.001138    0.34428100   -0.27519400
Se   15.09025000    1.34691000   16.35535000      0.815380    0.40750600   -0.06366800
Se   11.97737000    6.34188000    7.69146000      0.528401   -0.53009000   -0.21526900
Se   11.22187000    7.38856000   15.44085000      0.349975    0.04408500    0.14528700
Se   13.56653000   11.20393000    5.94787000     -0.319081    0.13951700   -0.60689100
Se   13.63051000   13.35996000   13.19336000      0.503767   -0.33164000   -0.47972200
Se   10.25161000   15.65306000    5.13445000      0.079486    0.54622200    1.00984100
Se   12.20130000   19.79445000   18.91220000      1.359234    0.62632700    0.95369700
Se   20.63423000    2.37185000    6.32396000     -0.306975    0.02459300   -0.95083900
Se   19.37871000   22.58625000   16.12459000     -0.479011   -0.30820800    0.79122700
Se   17.45217000    4.65299000    6.46556000     -0.721767    0.33802900   -0.60736500
Se   17.73229000    6.53366000   16.05891000      0.155306   -0.19640600    0.16414100
Se   19.98985000   10.46305000    4.09426000      0.701629   -0.46583700   -0.41387300
Se   17.23098000   12.93993000   13.28177000      0.225312   -0.16067200   -0.14848200
Se   18.52077000   19.76728000    4.78360000      0.236130    0.42648600   -1.02686200
Se   17.23981000   22.18622000   13.71266000     -0.100719    1.15854500    1.23842900
Se    3.59504000    6.63718000    6.99558000     -0.586352   -0.12370900    0.88609700
Se    4.29350000    4.06711000   12.14357000     -0.272871    1.00940900    0.36637100
Se    1.91273000    7.74790000    3.73792000     -0.745783   -0.21252600   -0.43737600
Se    3.97637000   10.45879000   15.04227000     -0.257812    0.52400600    0.75323500
Se    6.19243000   12.19670000    6.96776000     -0.436011   -0.28053600    0.12565800
Se    4.21106000   17.75312000   18.68906000     -0.534130    0.59168200    0.00764700
Se    2.21284000   21.60086000    6.10236000      0.464503    0.68809100   -0.21736300
Se    5.19861000   22.10314000   15.66627000      0.381399    0.24450700   -0.73179200
Se   10.91113000    2.15182000    7.15341000      0.042114   -0.11170700    0.06058900
Se   10.70267000    4.30268000   16.37093000     -1.887851   -0.41565300    2.10738400
Se   10.12416000   10.32713000    6.57351000     -0.025156   -0.38652400    0.64209900
Se    7.53135000   10.73846000   14.27394000     -0.090294    0.74174100   -0.83860100
Se    8.91065000   15.11778000    8.72327000      0.739855    0.73696100    0.49556100
Se   11.30604000   18.33876000   15.84528000      0.174177   -0.26778200    1.12389900
Se    8.21968000   19.00116000    3.58600000      0.044212   -0.26397900    0.22711700
Se   10.30885000   20.72132000   16.82283000     -0.246736    1.36099800   -0.19579000
Se   13.65813000    3.83587000    5.04592000      1.155658   -0.29341200    0.14828600
Se   18.51076000    3.09439000   14.84050000     -0.561473   -0.39401300   -0.13184900
Se   15.75122000    8.09938000    7.08241000     -0.223629    0.05951500    0.19959800
Se   16.17863000    8.69319000   14.13454000      0.257034    0.69986500    1.48003500
Se   16.96811000   12.22147000    6.64435000      0.146629    0.35230300   -0.47851600
Se   15.83761000   19.07130000   16.66743000     -0.514058    0.38077000   -0.96582200
Se   15.71707000   22.96421000    5.62892000      0.123161    0.62159500    0.28185700
Se   18.76934000    2.78677000   11.96441000      0.716797    0.17326100    0.69383500
Se    0.78732000    4.53127000    7.53765000     -0.438135    0.90359800   -0.01064800
Se   22.89755000    3.36727000   13.17687000      0.047797    0.14791200    0.03003900
Se   20.04514000   12.51361000    6.95967000      0.109791    0.43073800   -0.38245500
Se   20.74966000   13.52445000   16.17713000      0.349860   -0.80773800    1.42380800
Se   22.43388000   12.83725000    6.22287000     -0.838927    0.54962300   -0.06824900
Se   19.13382000   18.19741000   14.83835000      0.412955    0.33302600   -0.55778600
Se   21.96280000   19.46530000    7.79418000     -0.295794    0.18385300    0.18604800
Se   22.38106000   19.74704000   17.79071000     -0.091412    0.91497500   -0.43435800
Se    3.19042000    2.52413000    5.41381000      0.110137    0.47116700    0.33313900
Se    7.25976000    2.11377000   16.37298000      0.018059    0.45539900   -0.58726200
Se    2.37610000    3.28303000    0.39903000      0.912223    0.20441100    0.18100600
Se    2.20491000    9.85689000   10.73809000      0.898059   -0.20710200    0.22502800
Se    1.12754000   12.04542000    3.03922000     -0.560316    0.12124400   -0.22994200
Se    2.48735000   15.90528000   14.59938000      0.129819    0.08157100   -0.00951600
Se    4.00216000   15.98604000    1.02654000      0.117243    0.27100800    0.26573800
Se    4.80810000   19.20777000   13.11571000      0.117826   -0.18865700    0.79989800
Se   10.47467000    1.08260000    3.76590000      0.087461    0.19072500   -0.27919400
Se   10.83214000    1.30090000   14.34596000      0.610306   -0.52034300   -1.83188000
Se    9.56116000    9.81705000    3.43154000     -0.055594    0.33677900   -0.19041700
Se    7.43386000    8.71336000   17.41989000     -0.789908   -0.08525100   -1.35757500
Se   10.41060000   12.82672000    3.45918000      0.631015   -0.10469700   -0.39134700
Se    9.36854000   13.41708000   11.44284000     -0.032047   -0.01910800    0.50562400
Se    8.79535000   20.79965000    0.76270000      0.627110   -0.33757800   -0.06557200
Se    9.67067000   18.55430000   14.26634000     -0.315810    0.22973700   -1.18773000
Se   18.93414000   22.10618000    7.31836000     -0.461887   -0.26741400   -0.00715800
Se   14.54383000    2.26105000   12.76215000      0.518979    0.67624300    0.18028000
Se   15.40271000    6.42091000    3.70719000     -1.552224    0.82712700   -0.30732500
Se   15.29676000    5.82214000   15.82563000     -0.231528    0.16166900   -0.25284400
Se   15.22212000   12.44663000    1.90870000     -0.307391   -0.29492200    0.48449700
Se   14.91235000   17.22067000   12.60744000      0.938389   -0.73884000    0.48867500
Se   16.31581000   16.63711000    2.47752000      0.553065    0.46750900    1.11439500
Se   14.19251000   20.18629000   14.87779000     -0.479411   -0.17177500    0.15823600
Se    0.11641000   22.41178000    5.07451000      0.268572   -0.01642400   -0.15882000
Se   21.63738000   22.69998000   13.61259000      0.480659    1.24681500    0.12946800
Se   19.75377000    2.87984000    3.85118000      0.063537   -1.03155200    0.02587700
Se   19.52326000   10.27734000   14.22491000      0.624924   -0.81499400   -0.49376500
Se    2.60506000   11.43191000    5.51788000     -0.087012    0.30268100    0.18901800
Se   21.69433000   15.15007000   14.75190000     -0.250527   -0.08020200    0.67459200
Se   22.26790000   18.93731000    3.27555000     -0.226254    0.04889200   -0.00742400
Se   21.79087000   20.13678000   11.90806000     -0.199653   -1.40785200   -0.05984900
Se   22.79298000    5.03204000    5.23083000      0.191250    0.04466000    0.52190900
Se   21.17921000    5.17804000   15.91553000     -0.494813    0.24781100   -1.61981200
Se   21.67923000    9.64020000    2.34169000     -0.354065    0.51506500    0.43864000
Se    0.18921000   11.92395000   13.61943000      0.666100   -0.49092700   -0.87469000
Se    2.38968000   14.05119000    1.20964000     -0.642022    0.23014400    0.54390500
Se    2.33352000    0.74660000   13.41723000      0.077206   -0.28205800   -1.85128700
Se    4.05391000    0.18663000    2.02259000      0.789123   -0.24566300    0.30376300
Se    6.14535000   19.93782000   15.16156000     -0.223928   -1.19857800   -0.09337700
Se    8.75067000    5.15599000    8.11482000      0.196032   -0.27544300    0.28423000
Se    7.77538000    5.40264000   13.14459000      0.412721   -0.54731300   -0.09789100
Se    4.76516000    6.59780000    4.95781000      0.895976   -0.15969200   -1.24951400
Se    7.70893000   11.62260000   11.99463000      0.258793   -0.82206300    0.88713500
Se    7.88705000   15.21821000    2.55394000     -0.248417    0.19303500   -0.42214700
Se   12.02466000   15.02939000   13.36175000     -0.301437    0.59621300    0.56640800
Se    7.00717000   22.66326000    7.04466000     -0.111152   -0.14513300   -0.12846200
Se    8.19067000   21.74675000   13.46015000     -0.836759    0.63925700   -0.39975400
Se   12.94081000    1.20159000    3.62166000     -0.083078   -0.16602100   -0.47414100
Se    9.20533000    2.45684000   12.54653000      0.161328    0.15789200   -0.11160600
Se   14.65064000    9.80570000    4.32613000      0.176222   -0.01482500   -0.29295200
Se   11.22451000   10.75909000   13.27811000     -0.127728    0.14689100    0.12007200
Se   12.40904000   15.92930000    1.95161000      0.130229   -0.20776300    0.20832100
Se   12.94156000   17.86975000   13.96913000      0.472100    0.45427100    0.46574900
Se   12.04258000   19.55941000    3.71274000     -0.268010    0.51569400    0.21111200
Se   13.45715000    0.02682000   14.89967000      0.541138    0.00960700   -1.07405900
Se   18.37095000    3.25824000    0.72672000      0.421297   -0.10908300   -0.14087300
Se   16.83757000    7.29352000   12.52181000      0.037316   -1.57250400   -1.30608600
Se   18.81254000    8.42015000    4.96280000      0.068487    0.29713800   -0.52993600
Se   19.99079000   13.27443000   11.78807000      0.318487    0.19348900    0.24436600
Se   22.34371000   15.24567000    3.17628000      0.555275    1.44041100   -0.46743400
Se   18.96540000   15.40063000    9.37484000     -0.001068   -0.52061400   -0.03047200
Se   19.75317000   21.89213000    3.49451000      0.108864   -0.89972100    0.07723800
Se   17.49669000   21.85938000   11.47347000     -0.056792   -0.09582900   -1.90816300
