384
23.00800000 23.00800000 19.32000000
Ge    6.01288000    5.20858000   10.64461000     -0.282669   -0.15377200   -0.15398100
Ge    3.58795000    8.26470000    1.68452000     -0.790808    0.45813000   -0.35136900
Ge    1.76472000   10.60452000    7.68360000      0.290597   -0.61348500    0.05836600
Ge    5.89587000   10.88341000   17.48613000     -0.256026    0.15033600    0.32580200
Ge    5.19996000   15.28233000    9.76483000     -1.891570   -0.24044200    0.69201500
Ge    7.61891000   17.68516000    1.37190000     -0.160181    0.26360400    0.24101700
Ge    6.64666000   19.98070000    8.22901000      0.663917   -0.64414700   -0.77402900
Ge    4.67782000    2.03095000    0.17569000      0.398630    0.85460300    0.56489000
Ge    9.23442000    6.10758000   11.07300000     -0.449070    0.31535000    0.49610900
Ge   10.62047000    6.81211000    3.04767000      0.673121   -1.35055600   -2.37063900
Ge   12.01334000   13.36021000   10.58511000      0.327898   -0.65850500   -1.21124500
Ge   12.18007000   12.68358000   17.14281000      0.001254   -0.69053500    0.82250100
Ge   10.12542000   16.93845000    7.36258000     -1.360128   -0.70563400   -1.58215100
Ge   14.51180000   16.97727000    0.95487000     -1.983544    0.65108800   -2.73799900
Ge   10.44102000    2.34051000    9.68029000     -0.127123    1.05402900   -0.68707000
Ge   16.61267000   21.19606000   18.32826000     -1.596326    0.33775500    0.24874000
Ge   20.09761000    5.39530000   10.97948000     -1.230388   -0.09971500   -0.40176900
Ge   18.30690000    8.23443000   18.06899000     -0.141670    0.86878900    0.32990200
Ge   22.02802000   14.17483000   10.03098000     -0.569921   -0.51459400   -0.25263000
Ge   16.10129000   10.97189000   19.21236000     -0.393511    0.23632600   -0.57039400
Ge   14.33148000   17.33027000    7.74126000      0.126684    1.58701100    0.15104200
Ge   18.99490000   14.54805000    0.69887000      0.641297    0.19926700    0.48199500
Ge   19.41799000    0.60071000    9.48920000     -0.092910    0.27738700    0.36214500
Ge   17.55565000    1.73509000   17.33833000      0.342422   -0.41638900    0.14390400
Ge    0.88198000    7.56986000   10.56054000     -0.074582   -0.29790200   -0.10209000
Ge   22.87156000    2.88627000    0.68290000     -1.711555   -0.49370700    0.21783600
Ge    1.04365000   12.00143000   11.01782000      0.056774    0.51978500    0.43737800
Ge    0.43802000   11.31151000    0.79684000     -0.679382   -0.53975000   -0.53144600
Ge   22.48421000   15.23013000    7.49407000     -0.137124   -0.17027100   -0.80381800
Ge    0.75704000   15.35975000   16.24962000      0.249176    0.16236700    0.49492100
Ge   20.65970000   21.27557000    8.85837000      0.403775   -0.45859400    0.45279800
Ge    3.55794000   21.23455000    0.28675000      0.058268   -0.20036000    0.27166000
Ge    6.41456000    8.41371000    8.51186000     -1.173371    1.07953900    1.10500900
Ge    1.02684000    5.52865000   18.57594000     -0.103808    0.80861300    0.64076200
Ge   22.09389000    7.82914000    5.73458000      0.604239   -0.09511700   -0.12345700
Ge    3.34736000   12.60789000   16.08106000      1.018750   -0.00164500   -0.11284300
Ge    5.43236000   15.92675000    3.58581000      0.201086   -0.48003800    0.31817100
Ge    1.92808000   19.54229000   17.89891000      0.551890    0.00813100    0.02611500
Ge    4.39980000   18.76608000    9.41745000     -0.215216   -0.86932500   -0.42255800
Ge    2.56973000    0.86423000   15.73761000      0.325424   -0.55901800    0.82531800
Ge    8.42095000    2.50191000    7.44595000     -0.199851   -0.40612900   -0.30893300
Ge    8.18605000    3.08696000   18.85456000      0.149845   -0.06556400    0.14069300
Ge    7.41769000   12.94588000    3.85500000      0.205572   -0.11647400   -0.25339800
Ge    7.62056000    9.06306000    1.73103000      0.462348   -0.43546700   -0.32910200
Ge    5.31411000   16.75437000    6.48437000      0.077490   -0.47338000    0.14566100
Ge    9.64620000   15.43910000   18.64222000      0.485718    0.18945000   -0.13138500
Ge   10.94127000   22.22130000    5.76862000     -0.411529    0.04980500    0.10941100
Ge   10.46567000   21.77198000   14.22329000      0.084359   -0.16529200    0.14185400
Ge   12.92346000    5.78988000    9.82281000      0.100404    0.05874400   -0.42257400
Ge   13.87030000    6.73743000   18.30667000     -0.702301   -0.24018700   -0.74777200
Ge   12.97438000    9.29558000    8.45645000      0.410649   -0.33517600   -0.79030600
Ge   15.35375000   13.19498000   15.26288000      0.694174    0.82210000   -0.09800200
Ge   14.12796000   17.22014000    3.79121000     -0.671953    0.10378900    0.72208300
Ge   13.66036000   19.36051000    1.75455000      0.098321   -0.49196100   -0.47394500
Ge   15.39161000   21.42081000    9.35959000      0.227973   -0.03244800    0.45086600
Ge   16.59949000    1.77908000   14.25651000     -0.403671   -0.41160100   -0.09088400
Ge   21.18800000    4.01556000    8.28057000     -0.042220    0.08493200    0.18174800
Ge   21.04436000    5.30184000   18.29868000     -0.100724    0.39107600    0.66998600
Ge   15.71920000   11.07575000    8.41383000      0.251227   -0.69668600    0.45939100
Ge   18.96498000   15.14982000   17.41680000     -0.482852    0.66391900   -0.07777700
Ge   18.83833000   16.40799000    3.94371000     -0.074981   -0.07688800   -0.54237700
Ge   21.05173000   17.21720000   16.54648000     -0.450052    0.29762000   -0.13475400
Ge   22.47789000    1.70475000    4.12858000      0.106695    0.90380100    0.42135000
Ge   19.89397000   22.55764000    0.06690000     -0.874819    0.98544400   -0.34662700
Ge    5.45747000    3.18611000    7.08825000     -0.426295   -0.11020500   -0.02507100
Ge    2.58887000    4.88800000   14.45272000      0.401496    0.17373400   -0.28094200
Ge    2.69354000    4.89664000    4.48102000     -0.287820    0.99796100    0.03625400
Ge    1.52782000    9.48911000   13.39497000     -0.192369    0.63923300    0.68027100
Ge    2.11799000   14.84578000    3.76243000     -0.641738   -0.09088000    0.69295500
Ge    0.48541000   17.74623000   12.50670000      0.759390    0.86910000    0.39824400
Ge    0.70829000    2.21793000    6.77746000      0.676770   -0.49483500   -0.33976200
Ge    5.09548000   16.86282000   16.60927000      0.394752   -0.83688900   -0.32658300
Ge    9.10015000    3.30886000    3.65966000      0.777539    0.10486900   -0.68899400
Ge   10.25371000    1.70204000   16.53798000     -1.584090    0.59922500    1.92977500
Ge    8.52310000    8.82963000    5.46228000      0.777669    0.10403800    0.12227500
Ge    9.06174000    8.82410000   14.13525000     -0.142354    0.18477700    1.96369300
Ge   12.00755000   13.96638000    5.91863000     -1.129195   -0.33434200    0.07449500
Ge   10.35431000   13.21191000   13.72652000     -0.336234   -0.44907300    0.73863100
Ge    6.94477000   21.90701000    2.20028000     -0.309883   -0.24967100    0.48885200
Ge    8.46487000   18.97432000   17.95643000     -0.767942    0.68700400    0.00200500
Ge   14.08611000    1.76471000    6.84290000     -2.441523   -0.07365300   -0.77485200
Ge   11.01809000    5.24823000   14.10199000     -0.942816    0.28002000    0.01006100
Ge   14.72727000    5.77573000    6.47721000      0.808155   -0.17611000    0.15470100
Ge   13.18759000    9.78310000   14.24658000      0.412248   -0.22299700   -0.28047700
Ge   15.40142000   12.90168000    4.94212000     -0.223693    0.48795500    0.22851100
Ge   15.63933000   17.16176000   14.93965000     -1.020606    0.14220400    1.00608900
Ge   10.35958000   17.83779000    3.01678000      0.174948   -0.49594400    0.14044200
Ge   12.93983000   22.11545000   17.06964000     -0.014875    0.11972400    0.57592800
Ge   17.31254000    5.20883000    3.97638000      1.778747   -0.74558500    1.07871600
Ge   21.38031000    1.82465000   12.04691000     -0.552267   -0.42242300    0.24906000
Ge   18.82970000    8.48363000    7.44018000      0.049654    0.32100400    0.24751400
Ge   19.03444000   12.48355000   14.87648000     -0.054790   -0.83692000   -0.70844000
Ge    0.16359000   14.99848000    0.74925000     -0.746092    0.30635800    0.84398900
Ge   18.26960000   15.06741000   12.22024000      0.020128   -0.45648000    0.10380800
Ge   21.42973000   20.42141000    5.13267000     -0.659340   -0.33712700   -0.45306500
Ge    0.13904000   20.53300000   15.29447000      0.249971   -0.63701400    0.25160500
Ge    5.35683000    2.90248000    3.30697000      0.482405   -0.63268500    0.43710400
Ge    5.81171000    4.76097000   16.03913000     -0.018583   -0.90414300    0.41781500
Ge    3.42081000    9.49055000    4.42523000      1.198998   -0.24025600   -0.30192500
Ge    4.39609000    8.26290000   13.13725000      0.242592    0.37790700   -1.74060600
Ge    5.89673000   14.05670000    0.68351000      0.324195    0.06940400    0.03927600
Ge    3.42342000   13.66773000   13.87720000      0.135307    0.79116800   -0.72784400
Ge    4.27603000    0.31402000    5.64660000      0.131689   -0.90669200    0.03164400
Ge    7.16441000   19.56076000   12.08532000      0.679508   -0.04941500    0.03485400
Ge   11.40823000    4.39196000    5.74035000     -1.039702    0.13226800    0.14067500
Ge    7.56163000    1.26566000   13.83240000      0.407697   -0.79270600    0.90497000
Ge   12.04695000   10.68296000    3.46611000      0.100452    0.25839200    0.26045600
Ge   13.59290000    6.93948000   14.14283000     -0.118250    0.99907900    0.48953800
Ge   10.98322000   13.81098000    1.23360000      0.174179    0.20741900    0.23798200
Ge    9.34343000   16.59827000   11.13584000     -0.450458    0.28622400   -0.35854400
Ge   11.91057000   22.08997000    0.83066000     -1.096944    0.49463700    0.09278800
Ge   12.00108000   18.84316000   11.63130000     -0.662452    0.80217500   -0.01387200
Ge   22.01777000   22.45657000   17.84676000     -0.357562   -0.58302800    0.25476200
Ge   14.58744000    4.88953000   12.47133000      0.020313   -0.45355900   -0.54580800
Ge   16.84935000    8.01068000    2.37788000     -0.144377   -0.00588900   -0.17528000
Ge   16.16430000    7.26929000    9.37681000     -0.067523    0.26725000    0.66855200
Ge   17.25694000   11.35019000    3.11056000      0.099264    0.66294100    1.45544100
Ge   18.66813000   14.74228000    6.98319000      1.332273    0.09228500   -0.49448600
Ge   17.94247000   19.00434000    2.04524000     -0.178944   -0.37199300    0.45487000
Ge   16.14132000   19.88892000   12.73877000     -0.194015   -0.28395000   -0.18650200
Ge    1.54192000    0.33416000    2.05311000     -0.553145    0.58565600   -0.05762600
Ge    0.01680000    0.53050000   10.34645000      0.488592   -0.16186300    0.36508800
Ge   20.02713000    5.19309000    3.90488000     -0.233798    1.23575300    0.96221100
Ge   21.29900000   10.67305000   12.38516000     -0.660363    0.22164300    0.13877100
Ge   21.75050000   12.97622000    3.45643000     -0.268463   -1.09980100    0.43199800
Ge    0.00574000   18.74657000   10.00282000      0.504694    1.08086900   -0.62087500
Ge    3.17361000   20.43516000    3.48308000     -0.668752   -0.08701400    0.22731500
Ge   20.07539000   17.82498000   12.52390000     -0.539626    2.67174200    0.40991400
Se    1.00178000    0.67299000   18.63655000      0.364475   -0.40500500    0.48832400
Se    1.54296000    2.57255000   10.44091000     -0.398758    0.34866200    0.63395000
Se   22.73228000    5.45768000    1.90862000      0.385145   -0.21979500    0.00606400
Se   22.34222000    8.29373000   12.71833000      0.229895   -0.18788900   -0.06522400
Se    3.55781000   11.88737000   19.16100000      0.273435   -0.31053200   -1.37661600
Se    1.53932000   14.19993000    9.94993000      0.373790   -0.42727300    0.73470400
Se    2.86955000   17.23354000    3.43704000     -0.388511    0.66855400   -0.43055000
Se    1.52087000   20.97625000    9.35877000     -0.123203   -1.20011600    1.13666900
Se    7.43873000    1.95953000    1.74841000      0.170719    0.52990800   -0.24806200
Se    5.73061000    1.51999000   12.32910000     -0.016645    0.47257500   -1.08412000
Se    8.57188000    6.73345000    1.99880000     -1.519939   -0.19750000   -0.35042900
Se    9.90506000    8.27674000   12.16287000      1.038002   -0.66049600   -2.81812400
Se    7.48790000   11.84296000    0.11647000     -0.378406   -0.60393700    1.71629600
Se    5.94654000   14.31539000   13.77501000     -0.623732    0.12713000   -0.20342200
Se    5.64902000   19.65026000    1.70508000     -0.719877    0.76592400    0.03144500
Se    9.52094000   19.31734000   10.52618000      0.016031   -1.24645700    0.26214300
Se   14.47828000    4.03902000    1.20262000      0.186626   -0.50135000    0.86342600
Se   12.06391000    0.99049000   10.72902000      0.990200   -1.30168400    0.65344400
Se    9.44345000    8.50459000   18.59464000     -0.102738   -0.58922100    0.94110000
Se    9.73722000    9.42413000    8.88683000      1.476769   -0.53608200   -0.57359900
Se   12.64713000   12.20589000    0.22508000      0.160745    0.49598300   -0.26073000
Se   12.65158000   10.79182000   10.25266000     -0.026421    1.50446200    0.73468900
Se   15.85803000   14.53279000    0.89432000      0.251696   -0.33540000   -0.49229000
Se   11.98613000   17.80629000    8.42937000      0.266206    1.00986400    0.93977200
Se   16.95856000    3.08767000    2.63123000     -1.198354    0.18151800   -0.10131600
Se   14.44081000    0.66563000   10.58368000     -0.143007    0.28130300   -0.37066900
Se   18.29429000    5.72675000   18.40069000      0.074142   -0.15786200   -0.24314800
Se   21.46375000    8.19419000   10.15065000     -0.066764   -0.22448200   -0.23106700
Se   18.17229000   10.64065000    1.09677000      0.829581   -0.71490200   -1.25458300
Se   17.02470000   15.54707000    5.42927000     -0.711574    0.11705100    0.28077700
Se   20.07450000   17.10647000    0.67108000     -0.826364   -0.28664100    0.07845700
Se   17.92134000   18.02077000   11.39100000      0.037977    0.20832300   -0.45550200
Se    3.69452000    4.35990000    2.13034000      0.344698    0.91777800    0.16942300
Se    3.28749000    6.26941000   11.73475000     -0.679232    0.35407400   -0.32943800
Se    3.69806000   10.88093000    1.86392000      0.812883   -1.50909000    1.31317500
Se    5.51108000   13.71048000   11.46796000     -0.010201   -1.20832300    0.50407700
Se    4.93164000   13.39419000    3.68619000     -0.375003    1.07363000   -0.23218000
Se    3.43957000   16.78534000   10.65757000     -0.149023    0.30582700    0.00470000
Se    4.78725000    0.20921000   17.97521000     -0.269208   -0.34696700   -0.34458900
Se    6.15788000   21.02152000   10.30193000      0.311316    1.08379000    0.67797800
Se   10.58453000    7.13034000    5.22557000      0.505068    0.11606900    1.60278200
Se    7.33441000    3.02020000   10.74854000      0.359848    0.02486900   -0.23863800
Se   10.32246000   11.12349000   16.83588000      0.023556   -0.10569200   -0.28969400
Se    7.80689000   10.46054000    9.20668000     -1.785167    0.31398400    0.10208000
Se   10.24665000   18.11174000   19.26620000      0.451091   -1.98110000    0.93947000
Se   11.96862000   16.19405000   11.14498000     -0.127956   -0.08804100   -0.74427600
Se   13.76972000    0.66788000    1.46699000      0.620385    0.16320600   -0.05001500
Se   12.15470000   21.31024000   12.54254000      0.194165    0.02301600    0.46300600
Se   12.16265000    7.49137000    1.21217000      0.210236    0.42700100   -0.40103700
Se   19.18301000    7.60641000   11.73794000     -0.106338    0.53711800    0.27181900
Se   15.18879000    8.31988000    0.19939000      1.476540    0.64643500    0.87831300
Se   15.27160000   10.50054000   12.91528000     -0.623199    0.20941000   -0.11707400
Se   18.64250000   13.90404000    3.05904000      0.604265   -0.03668400   -0.18348800
Se   14.91824000   14.08178000    9.33021000      0.107312    0.34898100    0.53050700
Se   17.16289000    0.33749000    0.13316000      0.368808   -0.04463700   -0.00527400
Se   14.44463000   19.49878000   10.71959000      0.446737    0.54779600   -0.46969700
Se   21.82487000    0.56745000    2.07417000     -0.944542   -0.23936700   -0.61735900
Se   22.45488000    5.30890000   11.40355000      0.914285   -0.57035100    0.16474900
Se   20.58390000    6.39725000    1.81749000     -0.080242   -0.15415700   -0.51216900
Se   22.28938000   11.50120000    9.50872000     -0.610215    0.55974100    0.51351700
Se   21.71899000   13.23608000    0.00977000     -0.372756   -0.07637700    0.41283600
Se   21.64446000   16.18487000   12.37904000      0.380838   -1.46222100   -1.93327800
Se    1.27787000   20.97888000    1.67077000      0.556223   -0.82169100    0.29412100
Se   20.36082000   20.48495000   14.51577000     -0.647816    0.28216300    0.18210700
Se    4.08359000    4.65438000    8.75146000      0.776924   -0.04430200   -0.09186700
Se    0.43013000    5.78006000   16.02685000      0.135675    0.85907400   -0.50895600
Se    3.98546000    9.52057000    8.68064000      0.598695    0.17902800    0.30896800
Se    2.06599000    9.30150000   17.43641000     -0.302370   -0.23436000   -0.48702700
Se    3.27158000   18.19620000    6.78613000      0.521072    0.19959500    0.51757700
Se   22.88475000   17.95990000   14.98858000      0.543168    0.44953700    0.14390000
Se    4.52493000   22.65775000   13.30827000     -0.645290   -0.32040100   -0.33450300
Se    8.48425000   22.70470000   17.11832000      0.796916    0.22170400   -0.35761500
Se    6.64384000    4.80933000    4.45772000     -0.028721   -0.24446500   -0.01166300
Se    6.14911000    4.37356000   18.66333000     -0.245287    0.30878600   -0.44818300
Se    6.51401000   10.24186000    5.51584000     -0.716995   -0.17930800   -0.41450300
Se    3.92433000    7.24323000   15.09840000     -0.548595   -2.04339700    2.08191800
Se    6.68238000   16.90980000    9.72304000      2.406283    1.84599000   -0.52418400
Se    7.29783000   16.05848000   18.31576000     -1.249762    0.32701700    0.12490000
Se    8.36534000   18.51399000    6.57773000      0.015618   -0.03725300    0.05758800
Se    6.80940000   21.81252000   18.98018000     -0.123087   -0.05781900   -0.41082500
Se   16.25092000    1.52606000    7.42523000      2.487046   -0.18827200    0.18569900
Se   12.74943000    3.95899000   15.43636000      2.360820   -0.05681700   -0.86658200
Se   13.31033000    8.01441000   10.63394000      0.749229   -0.28043300    0.17438100
Se   13.94573000   11.31505000   16.17489000     -0.317347   -0.70415600    0.52005200
Se   13.66524000   15.72272000    6.32228000      0.538823   -1.62938400   -1.81745500
Se   13.95939000   16.25495000   17.17421000     -0.045568   -0.08522700   -0.53005300
Se   12.57202000   21.47331000    7.48413000     -0.031245   -0.25524400    0.40183300
Se   18.76779000   20.38013000   17.79037000      1.546405    0.09589300   -0.57354700
Se   18.92310000    3.09531000    9.54372000     -0.409956   -0.01887300   -0.46162200
Se   20.70811000    2.85676000   18.46046000     -0.380691   -0.56859000    0.22496200
Se   18.14849000   10.40933000    9.18333000     -0.551431   -0.09509700    0.22937900
Se   17.57474000   11.48443000   16.46225000     -0.360765   -0.01676200    0.43354000
Se   15.08989000   16.47037000    9.82936000      0.542197   -1.12841900    0.17457500
Se   17.39612000   15.70990000   15.10438000      1.463694   -0.88991200   -0.05363200
Se   19.02007000   17.83548000    9.21421000     -0.300392   -0.13983400   -0.07478100
Se   20.02593000   20.60786000    1.48241000      0.145908   -0.65822700    0.42067300
Se    4.88009000    0.75390000    8.17698000      0.084263    0.46559700   -0.29993200
Se    0.80482000    3.36881000   17.41970000     -0.166412   -0.17262400    0.20252000
Se    6.47835000    7.68756000   11.09164000      0.338599   -0.56620400   -1.20931000
Se    0.84852000    8.63537000    0.03758000      1.194835   -0.35323700    1.03099700
Se    4.43417000   14.32679000    7.82321000     -0.089791    0.17221500   -0.87494700
Se    5.09703000   14.00272000   17.41977000      0.040465    0.08219200   -0.86260400
Se    3.57230000   20.49758000   11.03622000     -1.347098    0.53251000   -0.35386100
Se    0.01711000   16.89807000   18.55427000      0.649164   -0.45122400   -0.18308600
Se    9.14981000    0.18363000    9.41948000     -1.010911    1.06265800    1.00374000
Se   11.42993000    4.33950000    2.42672000     -1.169153    0.89714400    0.63310300
Se   11.62162000    4.71576000   11.52814000      0.561831   -0.14561800   -0.40790500
Se    5.66791000    8.12029000   19.00466000     -0.278286    0.09980100    0.33576200
Se   10.59597000   13.22792000    8.16425000      0.536081    0.79994700    0.31835000
Se    8.41037000   12.48089000   17.46582000      0.418598    0.52542100   -1.33854400
Se   10.02482000   21.49236000    8.24181000      1.130906   -0.92029300   -0.86692600
Se   11.83637000   15.03657000   16.72646000      0.974692    0.74346300   -0.05187800
Se   17.78457000   20.01013000    8.26517000      0.158543    1.11883200    0.00351600
Se   14.95622000    4.49175000   18.31629000      0.400036   -0.54732700    0.54200200
Se   15.18704000    4.79980000    9.71348000     -0.246138   -0.15110200    0.04479200
Se   11.69564000    9.46250000   19.04928000      0.166954   -0.21821300    0.84214200
Se   16.88393000   12.36321000   10.33409000     -0.449592    0.27387800   -0.39260500
Se   16.87732000   13.70944000   17.95741000     -0.344616   -0.97925800   -0.30141200
Se   15.50083000   18.75613000    5.68224000      0.454401   -0.27982500    0.36202700
Se   15.92145000   20.53754000    1.45764000     -0.105637    0.24170600    0.10102700
Se   21.71712000    0.99337000    8.24867000      0.029667   -0.72986100    0.26663800
Se   22.97711000    0.34689000   15.78326000     -0.399076    0.48790200   -1.06269800
Se   20.13729000    6.37079000    8.31535000      0.044689   -0.42645900   -0.04013200
Se   20.79526000    8.45837000   18.82933000      0.200876    0.97208000   -0.80692100
Se   21.21878000    9.35772000    7.52328000      0.128805    0.34492900   -0.03932400
Se   21.59274000   10.52459000   17.35863000     -0.119605   -1.39764700    0.38010600
Se   20.33423000   16.54214000    5.85833000      0.427168   -0.80622500    1.54716500
Se   18.04712000   17.74533000   18.68854000      0.413501   -0.09391100    0.34902200
Se    2.33873000    1.26778000    8.71016000     -0.065433   -0.51268800   -0.82917100
Se    3.50968000    3.21773000   16.21046000      0.699123    0.90163900   -0.23160900
Se    1.47573000    8.06620000    7.18900000     -1.238391    0.19132800   -0.01900700
Se    0.09961000    8.83480000   16.02835000      0.079910    0.76440800    0.16052900
Se    1.45019000   16.03374000    6.34457000      0.162402   -0.31559700    0.04255100
Se    1.49093000   13.30026000   17.35263000     -1.036396   -0.35473900    0.26870100
Se    1.11025000   18.97973000    4.65803000      0.890350   -0.62282500   -0.19462400
Se    2.88206000   20.20146000   15.80201000     -1.198882   -0.23557400    0.30071900
Se    8.13129000    0.71968000    5.07569000     -0.660805    0.07097900    0.74756200
Se   11.86417000    1.48808000   18.23797000      0.657443   -1.35022000    0.42433600
Se    7.58488000    6.82702000    7.00516000     -0.213381   -0.08734700   -0.38602700
Se    7.45293000    7.03901000   14.81382000      0.130861    0.12843500   -0.04729400
Se    7.82064000   13.67279000    6.25211000      0.612944    0.67082400   -0.94205700
Se    7.99131000   16.90568000   14.51079000     -0.085447   -0.76173100    0.31815100
Se    4.89350000   20.53015000    6.62755000     -0.454549   -0.55406800   -0.62401000
Se    8.95747000   14.95896000   15.95841000     -0.471432    0.51642800   -1.06459200
Se   14.31612000   20.76105000    5.58917000     -0.009830    0.39151800   -0.16226200
Se   15.10521000    1.37115000   16.35741000      0.769177    0.30473700   -0.07140200
Se   11.97093000    6.29303000    7.69399000      0.522142   -0.33911700   -0.23753700
Se   11.22908000    7.41728000   15.43035000      0.346751   -0.13136000    0.06395800
Se   13.64557000   11.22457000    5.96273000     -0.430558   -0.17795300   -0.77448600
Se   13.63160000   13.30338000   13.17665000      0.166582    0.02314600   -0.32497800
Se   10.25589000   15.69660000    5.13490000      0.051326    0.46030600    0.87680400
Se   12.12999000   19.76840000   18.96279000      1.611590    0.60276700    0.57039400
Se   20.61026000    2.42532000    6.36804000     -0.416831   -0.04842800   -1.13497800
Se   19.34643000   22.57224000   16.11705000     -0.385018   -0.34675900    0.84701300
Se   17.45183000    4.64306000    6.47580000     -0.792802    0.34179400   -0.75203800
Se   17.73826000    6.53591000   16.13009000      0.314099   -0.14829500   -0.21813400
Se   20.00375000   10.45427000    4.11176000      0.707873   -0.16625100   -0.40784300
Se   17.25731000   12.96365000   13.29924000     -0.226870   -0.16865700   -0.38040100
Se   18.52655000   19.74453000    4.77464000      0.228037    0.47438600   -0.96567300
Se   17.26985000   22.19787000   13.62721000     -0.476418    1.37614800    3.26746700
Se    3.56933000    6.62282000    6.99850000     -0.372971   -0.38583400    0.62470700
Se    4.33608000    4.09729000   12.09016000     -0.378505    0.70799300    0.69214500
Se    1.89651000    7.78697000    3.77908000     -0.615849   -0.25575100   -0.56327200
Se    3.99497000   10.36764000   15.08077000     -0.309732    0.61235000    0.80680900
Se    6.24869000   12.18023000    6.91675000     -0.931785   -0.40699600    0.64783300
Se    4.21529000   17.79124000   18.65332000     -0.322733    0.46900600   -0.21947000
Se    2.23193000   21.66718000    6.13478000      0.573728    0.41809000   -0.24782000
Se    5.21974000   22.13120000   15.61461000      0.511579    0.08458400   -0.31773600
Se   10.92329000    2.11735000    7.18014000      0.225180   -0.14228200   -0.12015100
Se   10.79887000    4.28892000   16.46128000     -2.155475   -0.08112100    1.76503100
Se   10.11955000   10.33633000    6.58881000     -0.040246   -0.47202200    0.52816500
Se    7.51746000   10.74848000   14.21130000     -0.125512    0.67942900   -0.68719500
Se    8.96453000   15.10610000    8.70323000      0.470189    0.62206500    0.57685200
Se   11.27140000   18.34374000   15.91993000      0.350733   -0.46893100    0.59969100
Se    8.19839000   18.97561000    3.61078000      0.014003   -0.13927000    0.26219500
Se   10.27768000   20.66879000   16.81878000     -0.195500    1.57299700   -0.16528100
Se   13.65150000    3.82499000    5.09167000      1.036340   -0.37182200    0.05859000
Se   18.48721000    3.11692000   14.81540000     -0.388879   -0.33969800   -0.06827400
Se   15.80653000    8.07813000    7.09995000     -0.332471    0.04054100   -0.04705200
Se   16.18886000    8.66419000   14.13063000     -0.097369    1.16501300    1.57427900
Se   16.96838000   12.21045000    6.65118000      0.475813    0.26506900   -0.10658300
Se   15.82669000   19.02802000   16.64027000     -0.534573    0.35688000   -0.89937900
Se   15.69697000   22.97422000    5.62204000      0.031300    0.52326500    0.34393800
Se   18.76578000    2.73799000   11.98703000      0.644070    0.11549000    0.54780300
Se    0.75772000    4.54378000    7.50851000     -0.487976    0.47034200   -0.16888000
Se   22.90062000    3.38405000   13.11357000      0.013842    0.24224700    0.09131000
Se   20.05171000   12.51797000    6.90008000      0.022922    0.35155700   -0.26516200
Se   20.77261000   13.53525000   16.21362000     -0.174076   -1.05950600    0.80875900
Se   22.41290000   12.88567000    6.23916000     -0.742221    0.66694100   -0.07575600
Se   19.17297000   18.21906000   14.84512000      0.340124    0.32811600   -0.51837100
Se   21.92910000   19.49563000    7.80064000      0.021644   -0.21096900   -0.10664900
Se   22.36048000   19.68374000   17.76589000     -0.133591    1.12220800   -0.30400500
Se    3.17270000    2.56063000    5.44878000      0.118315    0.40998300    0.36714300
Se    7.28292000    2.11066000   16.31427000     -0.153183    0.56137600   -0.41889600
Se    2.34418000    3.25122000    0.43907000      1.078709    0.19358300    0.01402300
Se    2.20956000    9.82576000   10.74579000      0.716618    0.31262500    0.18536600
Se    1.10281000   12.00750000    3.04023000     -0.449322    0.22636900    0.14775800
Se    2.39755000   15.88050000   14.62448000      0.831039    0.05024700   -0.61023200
Se    3.97816000   15.98345000    0.99422000      0.305904    0.71051300    0.29351100
Se    4.81827000   19.16813000   13.11070000      0.209732   -0.13386000    0.87047100
Se   10.50147000    1.07545000    3.71422000     -0.174228    0.08254700   -0.28255600
Se   10.78258000    1.34805000   14.38206000      0.825660   -0.61405900   -2.38362000
Se    9.51852000    9.86816000    3.45456000     -0.238371    0.33931100   -0.37003300
Se    7.39174000    8.72985000   17.46225000     -0.519505   -0.17363200   -1.37504500
Se   10.45068000   12.82756000    3.45896000      0.696880   -0.00683300   -0.30829600
Se    9.37523000   13.41136000   11.45923000     -0.114166    0.03000700    0.27297700
Se    8.77097000   20.77932000    0.76385000      0.653271   -0.25181500   -0.12658000
Se    9.67561000   18.59808000   14.28079000     -0.508452   -0.04101300   -1.01444700
Se   18.89923000   22.12908000    7.32231000     -0.480415   -0.25686100   -0.35468400
Se   14.54485000    2.27204000   12.70954000      0.668699    0.64033500    0.44526500
Se   15.37942000    6.40789000    3.69120000     -1.478991    0.83448300   -0.26088600
Se   15.32029000    5.89022000   15.83615000     -0.476596   -0.07922700   -0.15126200
Se   15.22253000   12.47764000    1.96806000     -0.405608   -0.36931200   -0.02550400
Se   14.92401000   17.17588000   12.57560000      0.458790   -0.45224600    0.85379400
Se   16.24984000   16.68357000    2.40330000      1.855988    0.25806100    1.98345600
Se   14.17346000   20.18488000   14.92027000     -0.313750   -0.19815200    0.14222900
Se    0.13601000   22.43217000    5.07881000      0.191540   -0.06881400   -0.18243200
Se   21.62899000   22.70266000   13.60142000      0.544340    1.21812100    0.21399900
Se   19.74997000    2.87474000    3.83075000      0.026346   -1.25784500    0.07661500
Se   19.49594000   10.22166000   14.20952000      0.572920    0.07191900   -0.30009100
Se    2.62308000   11.39770000    5.51064000     -0.272418    0.60964500    0.50259100
Se   21.66765000   15.20675000   14.79437000     -0.178261   -0.25984400    0.67321100
Se   22.28287000   18.89461000    3.19502000     -0.283315    0.18136400    0.20546000
Se   21.82442000   20.09335000   11.88669000     -0.238929   -1.40477900   -0.04596600
Se   22.79188000    5.03350000    5.18856000      0.246905    0.01865200    0.58084700
Se   21.21416000    5.10073000   15.91607000     -0.624267    0.16647900   -1.51378300
Se   21.61482000    9.64003000    2.35660000     -0.279669    0.36378900    0.29938900
Se    0.17792000   11.90100000   13.59271000      0.643538   -0.31072400   -0.73390500
Se    2.39592000   14.12692000    1.19951000     -0.456100   -0.41830600    0.38815800
Se    2.37006000    0.79694000   13.35467000      0.111747   -0.21625700   -0.89812100
Se    4.06940000    0.25041000    2.01363000      0.746843   -0.41612900    0.49599900
Se    6.19663000   19.90394000   15.13256000     -0.477171   -0.86178900   -0.19057100
Se    8.74168000    5.15214000    8.11855000      0.338333   -0.38583400    0.30711400
Se    7.77642000    5.37317000   13.12720000      0.307795   -0.18549200    0.19895600
Se    4.85253000    6.58788000    4.96076000      0.577583   -0.33402200   -1.12340600
Se    7.69078000   11.60387000   11.94576000      0.320850   -0.70679300    0.97184400
Se    7.89911000   15.25749000    2.50526000     -0.368686   -0.03893100   -0.20119100
Se   12.01672000   15.07469000   13.32858000      0.202219    0.22584300    0.60793400
Se    7.03386000   22.65072000    7.08874000     -0.099676   -0.08484600   -0.22240000
Se    8.20066000   21.78082000   13.38270000     -0.454861    0.64643300   -0.21608500
Se   12.91647000    1.15051000    3.60376000      0.149451   -0.13981000   -0.21256300
Se    9.17111000    2.51756000   12.59489000      0.206739    0.22109500   -0.36002000
Se   14.70085000    9.74068000    4.32618000      0.017329    0.21075400   -0.11863000
Se   11.21154000   10.73232000   13.27631000     -0.396729    0.43470300    0.02357800
Se   12.45656000   16.00253000    1.92834000     -0.142424   -0.43119900    0.27395900
Se   12.88762000   17.89576000   13.98130000      0.628000    0.36356100    0.46555200
Se   12.05047000   19.55818000    3.74694000     -0.107176    0.53855500    0.01637200
Se   13.44866000    0.04947000   14.83716000      0.382321   -0.37361400   -0.34963300
Se   18.41261000    3.23723000    0.77703000      0.529754   -0.05349800   -0.41024400
Se   16.87873000    7.31371000   12.52763000      0.222194   -1.75060800   -1.57866200
Se   18.85079000    8.44266000    4.94486000     -0.054919    0.04841700   -0.55519500
Se   20.05257000   13.35488000   11.79532000      0.393177   -0.23918300    0.26594800
Se   22.34658000   15.26154000    3.23862000      0.618183    1.38969900   -0.77613100
Se   18.93791000   15.35499000    9.36061000      0.003780   -0.17914700   -0.00394600
Se   19.75424000   21.81668000    3.51426000     -0.110811   -0.48191400    0.60242000
Se   17.52458000   21.86466000   11.50112000      0.113293   -0.34310000   -3.76966500
