384
23.00800000 23.00800000 19.32000000
Ge    6.16482000    5.32265000   10.74035000     -0.078624   -1.02179700   -0.76928700
Ge    3.28055000    8.40805000    1.51365000     -0.535069    0.17031100   -0.04123100
Ge    1.80433000   10.51794000    7.80643000      0.069046   -0.24704500   -0.70827800
Ge    5.70980000   11.10862000   17.33899000      0.557042   -0.07003800    0.82564900
Ge    5.03295000   15.29949000    9.82223000      1.699551   -0.45228900   -1.54691000
Ge    7.71625000   17.96792000    1.58228000     -0.254266   -0.14500700   -1.06328400
Ge    6.56730000   20.00050000    8.06522000      0.390596   -0.04812600    0.10132800
Ge    4.59913000    2.08133000    0.53025000      1.362241    1.23387100   -1.26291800
Ge    9.01003000    6.29019000   11.13310000      0.108279   -0.76380700   -0.50762000
Ge   10.64653000    6.93154000    2.92409000     -0.478303   -0.98905800    0.16591600
Ge   12.09623000   13.09527000   10.50327000      0.198622    1.14283600   -0.15947900
Ge   12.14865000   12.65243000   16.99415000     -0.554300   -0.95870400    0.79932400
Ge    9.99186000   16.79723000    7.14960000      0.430142    2.02389000    2.38887600
Ge   14.39781000   17.20659000    0.61689000      0.447886   -0.83318000   -1.05449900
Ge   10.49912000    2.56284000    9.51022000      0.072864   -0.26916700    1.20807100
Ge   16.61217000   21.39360000   18.66778000     -0.530842   -1.19625800   -1.47963400
Ge   19.90829000    5.19274000   10.84779000     -0.115529    0.59762900    0.39684500
Ge   18.21433000    8.22242000   18.16257000     -0.037728    0.80586000    0.71637400
Ge   21.81870000   14.08756000   10.02625000      0.213828    1.25725600   -1.17515900
Ge   16.04855000   10.83766000   19.20910000      0.065019    0.39823600    0.23407600
Ge   14.34263000   17.52883000    7.79326000     -0.155277   -0.16894600   -0.59445100
Ge   19.28464000   14.69705000    0.72357000      0.065103   -0.35471400   -0.38815400
Ge   19.32155000    0.70648000    9.35932000      0.445704   -0.48494000    0.52821100
Ge   17.37647000    1.58889000   17.17911000      1.917968   -0.38699700    0.81023500
Ge    0.86947000    7.69592000   10.58908000      0.326520   -0.55811500    0.01032400
Ge   22.80211000    2.66336000    0.87206000     -1.011637   -0.05564700   -0.12463700
Ge    0.87962000   12.21454000   10.96127000      1.354355   -0.25345100    0.68196700
Ge    0.38852000   11.03489000    0.95513000     -0.849596    0.11496400   -0.58951400
Ge   22.53450000   15.60717000    7.62594000     -0.410016   -0.22458900   -0.55721000
Ge    0.80725000   15.33122000   16.29360000     -0.285791   -0.67192000    1.04070100
Ge   20.70985000   21.30927000    8.62448000     -0.557363    1.30266300    1.30910100
Ge    3.70096000   21.13296000    0.56918000     -0.251813    0.07306200   -0.56297600
Ge    6.43724000    8.45454000    8.70984000     -0.769147    0.80297100   -0.92502900
Ge    0.96604000    5.59694000   18.49016000      0.189104    0.98249800    0.08184000
Ge   22.31523000    7.78153000    5.67911000      0.317204    0.10774900   -0.45148000
Ge    3.47569000   12.47416000   16.02326000     -0.499676    0.75137500    0.57278500
Ge    5.48717000   15.71495000    3.75456000     -0.087053    0.11653500    0.04300800
Ge    1.83356000   19.40605000   17.87297000      0.985848    0.29280700    0.27793700
Ge    4.53194000   18.75144000    9.42740000     -0.272201   -0.62400900   -0.04329200
Ge    2.53340000    0.98025000   15.90649000      0.156797   -0.54918500   -0.53408600
Ge    8.54776000    2.31401000    7.51112000     -0.933486   -0.17725800   -0.22669700
Ge    8.13834000    3.12419000   18.63175000     -0.401088    0.19340100    0.53341200
Ge    7.42105000   12.93360000    3.81632000     -0.084849   -0.10500000   -0.62809100
Ge    7.64681000    8.95577000    1.78374000      0.189378    0.10210200   -0.90635600
Ge    5.25544000   16.85379000    6.58979000      0.823719   -1.02031200    0.05214200
Ge    9.73775000   15.29198000   18.58778000      0.821045    0.12297700    0.39418100
Ge   10.96908000   22.19538000    5.68013000      0.099565    0.00024200    0.92657300
Ge   10.55687000   21.84339000   14.40176000     -0.672247    0.29256700   -0.51942000
Ge   12.97424000    5.76464000    9.81040000     -0.675701   -0.31277100    0.98299300
Ge   13.72178000    6.75991000   18.28952000     -0.146873   -0.20019300   -0.67007900
Ge   13.14489000    8.96311000    8.35458000      0.245978    0.42448300    0.07556400
Ge   15.39375000   13.34100000   15.39618000     -0.256390   -0.38579600   -0.46510900
Ge   14.06994000   17.18622000    3.78187000     -0.237590    0.24958400    0.78525400
Ge   13.80160000   19.43621000    1.47267000      0.426457    0.60670600    1.29548500
Ge   15.68445000   21.47565000    9.46383000     -0.186037   -0.06829800    0.14219000
Ge   16.64085000    1.53443000   14.26709000     -1.097336    1.24411500   -0.56602200
Ge   21.16963000    3.93008000    8.35872000      0.690496   -0.29499500   -0.02513800
Ge   21.17050000    5.43394000   18.36335000     -0.064351   -0.02180000   -0.72210900
Ge   15.74750000   11.04992000    8.60418000     -0.594623   -0.28284300   -0.49980700
Ge   18.95288000   15.05133000   17.25558000     -0.645864    0.25786800    0.55414900
Ge   18.82388000   16.38133000    3.86514000     -0.209716   -0.44991100   -0.01994200
Ge   20.95864000   17.02483000   16.68984000     -0.460725    1.31709200    0.49789700
Ge   22.18573000    1.64366000    4.14244000      0.257986    1.16856800    0.61692400
Ge   19.86239000   22.52576000    0.17985000     -0.412687    1.49562100   -1.13385300
Ge    5.34255000    3.09230000    7.02269000     -0.254067    0.19161600    0.58450800
Ge    2.68533000    4.86019000   14.42038000     -0.147705    0.82442900   -0.20746100
Ge    2.45491000    4.94192000    4.33103000      0.389618    1.15454100    0.23086600
Ge    1.32118000    9.78214000   13.23614000      0.639774   -1.94683900    0.51893800
Ge    1.93174000   14.74854000    3.67618000     -0.100193    0.02789500    0.92779100
Ge    0.40029000   17.89253000   12.27155000      0.442671   -1.02690500    0.71490700
Ge    0.88982000    2.01586000    6.68021000     -0.091159    0.58051600    0.37151800
Ge    5.39827000   16.66986000   16.53262000     -0.423152    0.02657500    0.14153100
Ge    9.27817000    3.20184000    3.53516000      0.166216    0.67314700   -0.35067500
Ge   10.03446000    1.80703000   16.75787000      0.617040    0.46150400   -0.09538900
Ge    8.65321000    8.74895000    5.36741000      0.635030   -0.03974000    0.75755900
Ge    8.83812000    8.74961000   14.11664000      1.667405    0.43022100   -0.53373400
Ge   11.70383000   13.98231000    5.95285000      0.834610   -0.09518000   -0.26706400
Ge   10.36154000   13.34260000   13.72746000      0.150180   -0.46858300    0.78163100
Ge    6.77449000   21.86228000    1.96785000      0.561155    0.40199800    0.20717300
Ge    8.31677000   18.96733000   18.07638000      0.160803    0.16910800    0.60427500
Ge   14.02338000    1.83156000    6.89562000      0.629257   -0.85986500    0.42189800
Ge   11.08082000    5.28590000   14.14697000     -0.259668   -0.33354000    0.83145300
Ge   14.77757000    5.57978000    6.29529000      1.154972    0.99909900    0.40144300
Ge   12.98014000    9.66543000   14.21437000      1.027979    0.24828600    0.16396700
Ge   15.58095000   12.80346000    5.03071000     -0.200908    1.16781800   -0.39727700
Ge   15.50707000   16.99239000   14.84109000      0.115574   -0.39619800    1.41225300
Ge   10.34430000   17.99179000    3.21660000      0.330152   -0.53109300   -0.30801700
Ge   12.92450000   22.07040000   17.15044000     -0.214094    0.73700800   -0.22235600
Ge   17.34434000    5.00873000    4.00287000     -0.249180    0.16211500    0.17728200
Ge   21.14838000    1.74247000   12.09436000      0.428043   -0.19440700   -0.04853100
Ge   18.89466000    8.36351000    7.35098000     -0.232528   -0.00322200    0.14715200
Ge   18.72116000   12.36815000   14.93748000      2.084466   -1.20890600    0.12349300
Ge    0.19127000   15.03775000    0.86955000     -1.337368    1.08273300    0.28163900
Ge   18.35192000   15.03382000   12.22144000     -0.324917    0.53895900   -0.04789800
Ge   21.63246000   20.36253000    4.99908000      0.247754   -0.57305600   -0.30514600
Ge    0.36742000   20.26452000   15.36985000     -0.862435    1.03245000   -0.17895400
Ge    5.36168000    2.77648000    3.26794000      1.021958   -0.34332200    1.11957400
Ge    5.63727000    4.53000000   15.92520000      0.971655    0.38625300    0.23417200
Ge    3.61438000    9.39211000    4.64376000      0.476311   -0.33935100   -0.16298100
Ge    4.42805000    8.23871000   13.13006000     -0.218562   -0.67415300    0.39066600
Ge    5.93006000   14.11548000    0.88547000      0.151784   -0.68393200   -0.24086800
Ge    3.46223000   13.61029000   13.80316000     -0.458618    0.47746100   -0.40581400
Ge    4.24770000    0.39354000    5.64481000      0.916603   -0.12580400    0.00270800
Ge    7.10243000   19.72464000   11.98942000      0.878145   -1.12487100    0.83470800
Ge   11.18970000    4.21933000    5.89683000     -0.012751    0.33029800   -0.24306000
Ge    7.77600000    1.08764000   14.02788000     -0.653542    0.45423800   -1.58752200
Ge   11.96344000   10.76903000    3.69974000      0.520787   -0.69455300    0.16011700
Ge   13.71053000    7.00920000   14.16189000     -0.287652    0.90964000    0.11412500
Ge   11.10240000   13.81071000    1.29701000      0.623792    0.14496500   -0.74631700
Ge    9.23703000   16.66310000   11.24624000      0.150274    0.35160500   -0.41427700
Ge   12.02033000   22.07912000    1.00283000     -1.400921    0.39507100    0.00450100
Ge   11.98201000   19.08200000   11.59049000     -0.737648   -0.69040800   -0.01026800
Ge   22.18795000   22.33979000   18.01406000      0.338347   -0.08812400   -0.25696400
Ge   14.69318000    4.83906000   12.69084000      0.047123   -0.17720800   -0.72557100
Ge   16.88036000    8.04977000    2.38698000     -0.558624    0.03953600    0.09168500
Ge   16.26495000    7.44379000    9.40186000     -0.076888   -0.31694500    1.01061600
Ge   17.16702000   11.40321000    2.99441000      0.891064    0.06553300    0.83365300
Ge   18.79629000   14.73754000    6.87532000      0.089361    0.54996000   -0.58700700
Ge   17.80488000   19.06166000    2.22034000     -0.395501   -0.00265100   -0.23415600
Ge   15.94175000   19.72341000   12.69270000      0.684360   -0.15572500    0.63850000
Ge    1.50474000    0.35723000    2.11357000     -0.241419   -0.26653700   -0.33161700
Ge   22.83490000    0.46836000   10.37973000      0.363517   -0.05467800    0.80459800
Ge   19.91502000    5.22919000    3.96193000      0.264257    0.24348100    0.45603700
Ge   21.09696000   10.86175000   12.28252000     -0.668219   -0.42902500    0.02817300
Ge   21.82488000   12.94623000    3.52095000     -0.653143    0.41873600    0.62221500
Ge    0.25812000   18.95479000    9.71393000      0.476472   -0.04408600   -0.20785800
Ge    2.99808000   20.49130000    3.58442000      1.352871   -0.38235500    1.69471500
Ge   20.18916000   18.19164000   12.54501000     -0.275608   -0.80684700   -0.84587300
Se    1.40943000    0.55592000   18.78397000     -0.791868   -1.12668400   -0.09813300
Se    1.41562000    2.45760000   10.80780000     -0.110645   -0.54101300   -0.60877900
Se   22.77384000    5.27090000    1.85663000      1.315564   -0.71680600    0.13847200
Se   22.22869000    8.28559000   12.58172000      0.658681    0.19746500    0.18042600
Se    3.82056000   12.00867000   19.13250000      0.233873   -0.49144100    0.10598100
Se    1.63615000   14.37101000   10.28009000     -0.343332   -0.53521600    0.45566400
Se    2.60832000   17.17726000    3.24667000      0.560119    0.58752500   -0.64970900
Se    1.78121000   21.02127000    9.41952000     -1.378783   -0.44381200   -0.23357800
Se    7.40973000    2.02843000    1.66180000      0.297505    0.60295100   -0.30716100
Se    5.69735000    1.48384000   12.22950000      1.176932    0.17067900    0.13289100
Se    8.37361000    6.61315000    2.08029000      0.006387   -0.01581800    0.35670300
Se    9.87669000    8.33510000   11.88671000      0.181582    0.49671800    0.55786400
Se    7.54975000   11.74033000    0.24788000     -0.082679    0.72472300   -0.56042000
Se    5.88490000   14.08314000   13.79837000     -0.213738    0.34097900   -0.70230500
Se    5.68595000   19.69815000    1.72200000     -1.438445   -0.14453200    0.20211200
Se    9.54985000   19.24811000   10.53477000      0.025872   -0.95790600    0.25497200
Se   14.49244000    4.14823000    1.38774000      0.365477   -0.47286000    0.03893500
Se   12.12929000    0.93673000   10.71628000     -1.704646   -0.17002300    0.28116600
Se    9.35588000    8.57890000   18.75138000     -0.746471    0.02166500    0.24425300
Se    9.85436000    9.36462000    8.89281000     -0.348154    0.23023600   -0.15955500
Se   12.91897000   12.19756000   19.25183000     -0.395241    0.75823600    0.72557000
Se   12.62660000   10.84147000   10.30200000      0.355433   -0.71628000   -0.40338500
Se   15.91352000   14.55686000    0.96355000     -0.335745   -0.07830200    0.11543000
Se   11.99918000   17.89488000    8.46604000     -0.681609    0.02399200   -0.19455500
Se   16.96245000    2.91268000    2.59317000     -1.289946    0.45932300   -0.01774100
Se   14.28351000    0.48094000   10.42248000      1.353311    0.78960400   -0.20569700
Se   18.16155000    5.69074000   18.44575000      0.538242   -0.53436200    0.91537700
Se   21.52638000    8.13453000    9.92255000     -0.382064    0.73700400   -0.15367700
Se   18.35086000   10.60674000    1.00594000     -0.755954   -0.34033000   -0.41983300
Se   16.95314000   15.55289000    5.38108000      0.317771    0.00343300    0.63396000
Se   19.88856000   17.15481000    0.84086000     -0.452059   -0.05122300   -0.26883300
Se   17.78891000   17.93592000   11.43053000      0.910237    0.20584600   -0.48631200
Se    3.85413000    4.27390000    2.05128000     -0.005474    1.49446600    0.60535100
Se    3.38818000    6.28273000   11.63227000     -1.360725    1.29957100    0.00398800
Se    3.66016000   10.85318000    2.01591000      0.314332   -0.71950700   -0.28334900
Se    5.51554000   13.59997000   11.32527000      0.228816   -0.96516300    1.07073400
Se    4.75085000   13.36634000    3.72547000      0.574126    0.70961400   -0.21845800
Se    3.44583000   16.62839000   10.57910000     -1.930233    2.26857000    0.72896600
Se    4.89189000    0.42135000   18.16521000     -0.161153   -0.57661800   -1.50853000
Se    6.24079000   21.15408000   10.37441000     -0.237422    1.03593200   -1.20273000
Se   10.68552000    7.22397000    5.42026000      0.143652   -0.32000800   -1.25886900
Se    7.36706000    3.12883000   10.71342000      0.082351   -0.59235000   -0.20901600
Se   10.37672000   11.03508000   16.63339000     -0.635633    0.73015100    0.28224200
Se    7.76955000   10.48238000    9.43692000      0.053125   -0.87129600   -0.94298900
Se   10.35970000   18.11699000    0.07551000     -1.312955   -2.29659600    0.12272800
Se   12.03136000   16.18360000   11.05723000     -0.863970    0.40405000   -0.41234100
Se   13.71381000    0.71658000    1.36981000      1.348139    0.71418600   -0.17939500
Se   12.17912000   21.28846000   12.65909000      0.218920    0.65957700    0.43983700
Se   12.22014000    7.66870000    1.09508000      0.029260    0.37775200    0.02207500
Se   19.39325000    7.68892000   11.84206000     -0.748662   -0.33597800    0.12640900
Se   15.31855000    8.32854000    0.06325000      1.076699    0.04066300    0.51616400
Se   15.12202000   10.61166000   13.01504000     -0.342010   -0.22917400   -0.05435200
Se   18.52070000   13.80314000    2.94605000      1.111013    0.62167900   -0.07309400
Se   14.82232000   14.21342000    9.26797000     -0.176166   -1.10978200   -0.07908000
Se   17.07090000    0.52361000    0.16573000      0.535188    0.84448700    0.28307700
Se   14.44103000   19.67458000   10.85093000      0.017692    0.18934500   -1.46509300
Se   21.63976000    0.49151000    2.07548000     -0.184611   -0.67945200   -0.93810500
Se   22.55956000    5.07755000   11.26409000     -0.564566    0.58825400   -0.96424200
Se   20.71899000    6.17950000    1.70008000     -1.262829    0.24218100   -0.07663200
Se   22.25589000   11.71333000    9.43629000     -0.870571   -1.03871500   -0.46538900
Se   21.86525000   13.32866000   19.21944000     -0.571087    0.03970100    0.91810300
Se   21.57729000   15.96738000   12.08596000      0.404722    2.33070600    0.01605300
Se    1.44695000   20.77542000    1.92993000     -1.001346    0.96014500   -1.91691100
Se   20.04402000   20.59100000   14.70786000      0.806560    0.69792300   -0.76702000
Se    3.96317000    4.59467000    8.76270000      0.773633    0.39910300   -0.58925800
Se    0.43082000    5.97851000   15.91048000     -0.114004    0.28356800   -0.66424600
Se    3.92157000    9.51089000    8.63644000      1.161156   -0.08657300    0.44074500
Se    1.95264000    9.22663000   17.25625000     -0.639190   -0.09982400    0.03351800
Se    3.15597000   17.99616000    6.65925000     -0.795908    0.29834000    0.41269700
Se    0.00280000   17.92196000   15.05750000     -0.267591   -1.12885100   -0.88271500
Se    4.45620000   22.65603000   13.38302000     -0.057025   -0.31051000   -1.15113700
Se    8.52990000   22.72053000   17.05827000      0.424023   -0.13507700   -0.04177600
Se    6.70864000    4.67432000    4.52320000      0.073196   -0.18320400   -0.09929300
Se    6.20263000    4.56794000   18.51062000      0.063018   -0.15533300   -0.43789200
Se    6.57977000   10.09566000    5.63295000     -0.683520   -0.58136500   -0.67812900
Se    4.01820000    6.95522000   15.40639000     -0.183826   -0.96614300   -0.67878500
Se    6.79705000   16.96744000    9.66683000      0.303070    0.16733400   -0.02035900
Se    7.43276000   16.02381000   18.08891000     -0.936239    0.74267400    0.08104300
Se    8.47982000   18.51659000    6.53987000     -0.254932    0.34407000    0.23613300
Se    6.73461000   21.79809000   18.67365000     -0.378195    0.20038400    0.45282600
Se   16.57794000    1.54823000    7.39069000     -0.683327   -0.12082400   -0.62513800
Se   12.97995000    3.80711000   15.30191000     -0.953903    0.81585100    0.25085600
Se   13.41285000    7.98570000   10.69062000      0.375696   -0.23904700   -0.27570900
Se   13.79413000   11.21051000   16.31157000      1.254151   -0.83008300   -0.98619800
Se   13.71667000   15.67424000    6.21992000      0.389638   -0.39682900   -0.35565600
Se   13.85820000   16.26889000   17.04294000      1.680758    0.55820800   -0.02132000
Se   12.78728000   21.47346000    7.74068000     -1.244960    0.09822500   -0.89974200
Se   18.97076000   20.33894000   17.58244000     -0.796054    0.59653200    1.13418000
Se   18.80499000    3.10537000    9.42857000     -0.514838    0.13856000    0.06301500
Se   20.93450000    2.97040000   18.53180000     -0.391618   -0.59415600    0.37795500
Se   17.97315000   10.42647000    9.36452000      0.715539   -0.70051700    0.50566500
Se   17.44161000   11.43602000   16.69682000     -0.305814   -0.98519600   -0.20271400
Se   15.12171000   16.30219000    9.97751000      0.449744    0.78623300   -0.63030800
Se   17.68344000   15.83921000   14.82450000      0.250017   -0.18007400    0.49217300
Se   19.06575000   17.73938000    9.28983000     -0.450190   -0.83227300    0.26042800
Se   19.89610000   20.65347000    1.59273000      0.381681   -1.63846000   -0.61979800
Se    4.87040000    0.76755000    8.40580000     -0.384207    0.67979600   -1.06816100
Se    0.80400000    3.43967000   17.46256000     -0.343813   -0.62078200    0.29721800
Se    6.37127000    7.70585000   11.01673000      0.399360    0.33755200    0.37274100
Se    0.89480000    8.65225000    0.16500000      1.151104   -0.59352800    0.59896400
Se    4.64510000   14.26301000    7.64905000     -0.129581    0.92908500    0.32272300
Se    5.15600000   14.13430000   17.40999000     -0.166316   -0.54820700   -0.51870100
Se    3.42413000   20.54472000   10.93940000      0.120008   -0.11384000    0.71542300
Se    0.18478000   16.84336000   18.31158000      0.504505   -0.59077200    0.32165500
Se    8.89254000    0.19388000    9.71669000      0.702963    0.41426500   -0.60740100
Se   11.32235000    4.50788000    2.57649000     -0.465684    0.19984300    0.14504800
Se   11.48684000    4.58600000   11.58965000      0.609925    0.74304600   -0.83527000
Se    5.41926000    8.18146000   18.97459000     -0.023619   -0.11998600    0.32042700
Se   10.58721000   13.43173000    8.15175000      1.133279   -1.07386300    0.24186000
Se    8.42100000   12.72556000   17.32720000      0.208994   -1.25406200    0.85695600
Se   10.14187000   21.58229000    8.22461000      0.799868    0.19938200    0.12267700
Se   12.00090000   14.98175000   16.73358000     -1.041064    0.57358300   -0.60014600
Se   17.88132000   20.22873000    8.40699000      0.099629    0.15168700    0.05331800
Se   14.85870000    4.50417000   18.39984000      0.041768   -0.22910500    0.96579500
Se   15.06208000    4.71915000    9.90121000      0.610228   -0.08054700    0.02363300
Se   11.84421000    9.70399000   19.03201000     -0.876535   -0.39170200    0.45253500
Se   16.93501000   12.40729000   10.34601000     -0.081726    0.45587100    0.03530400
Se   16.72401000   13.40156000   17.87671000      0.160668    0.56538700    0.17974600
Se   15.58044000   18.76430000    5.51914000     -0.175201    0.26299500    0.35257700
Se   15.98994000   20.93859000    1.66898000      0.006329   -0.53199800    0.67980900
Se   21.84390000    1.20375000    8.26252000     -0.458178   -0.76248600    0.00732600
Se   22.87361000    0.42262000   15.67977000     -0.287184    0.14827000    0.09830500
Se   20.10941000    6.12521000    8.37403000     -0.494969    0.39049500   -0.21236500
Se   20.89279000    8.70568000   18.89319000     -1.066023   -1.66578500    1.14313200
Se   21.19045000    9.27104000    7.58429000      0.466315    0.29850600   -0.24390800
Se   21.29913000   10.35182000   17.50261000      0.427333    1.64174600   -1.37874400
Se   20.26697000   16.53939000    5.97410000      0.393435   -0.49731900    0.80365800
Se   17.97026000   17.89013000   18.65798000      0.698269   -0.16287300    0.41809400
Se    2.37234000    1.16479000    8.69395000     -0.386249    0.31182300    0.87201300
Se    3.50330000    3.42721000   16.31237000     -0.454361   -0.44116600    0.31263500
Se    1.28701000    7.96684000    7.25042000     -0.187927    0.03456800    0.55607400
Se   22.82823000    8.78988000   16.19599000      0.677356    0.27569300   -0.34780300
Se    1.43604000   15.88361000    6.13020000      0.423810    0.06988900    0.60535700
Se    1.39050000   13.28220000   17.50096000      0.345350   -0.42498400   -1.06977400
Se    1.14405000   18.92160000    4.44454000     -0.135998   -1.14275100    0.73810300
Se    2.78481000   20.21738000   15.66292000     -0.163586   -0.24966200    0.79935400
Se    8.25535000    0.62603000    5.25635000     -0.287306   -0.29348600    0.69045500
Se   12.00858000    1.55433000   18.23154000      0.038145   -1.59724300    0.04753500
Se    7.40913000    6.68980000    7.09762000      0.196428    0.04684300   -0.05457000
Se    7.37307000    7.03532000   14.77000000     -0.526192   -0.56131700    0.06649900
Se    7.91014000   13.70197000    6.10055000     -0.015962    0.19000900   -0.47663100
Se    7.85036000   16.95343000   14.34622000      0.607990    0.52154400   -0.00807800
Se    4.66710000   20.57115000    6.54686000     -0.028811   -0.41329300   -0.15522200
Se    8.78434000   15.11559000   16.07822000     -0.246985   -0.06632700   -1.03952300
Se   14.13478000   20.67555000    5.39807000      0.663972    0.16156200    0.52759600
Se   15.21832000    1.49067000   16.34019000     -0.983939   -0.13644800   -0.58210300
Se   12.00175000    6.07669000    7.67332000      0.406141    0.36431000   -0.05579700
Se   11.29341000    7.51255000   15.39401000     -0.007912   -0.30886900   -0.00659200
Se   13.89213000   11.25059000    5.92522000     -1.028622   -0.88270400   -0.60531900
Se   13.64485000   13.09638000   13.08405000     -0.005406    0.37913900    0.18874400
Se   10.27250000   15.88675000    5.17213000      0.039868   -1.11175600   -2.16790100
Se   12.04894000   19.74637000   19.17753000      1.294013    0.96607000   -0.90462600
Se   20.45902000    2.61494000    6.38994000     -0.413201   -0.58302900   -1.38535800
Se   19.16945000   22.48378000   16.19186000     -0.328698    0.38367900    0.67056500
Se   17.35505000    4.64094000    6.42857000     -0.545123    0.15934700   -0.40389000
Se   17.81263000    6.53104000   16.32849000      0.408633    0.18126500   -1.46311800
Se   20.12793000   10.45084000    4.15160000     -0.089961    1.34425400    0.75932000
Se   17.26447000   13.03333000   13.28156000     -1.264221   -0.41862400   -0.78921600
Se   18.56422000   19.69813000    4.64439000     -0.534792   -0.51367500    0.42176100
Se   17.33714000   22.37338000   13.62999000      0.188760   -0.70315900   -0.45654500
Se    3.44148000    6.50053000    7.04643000      0.118822   -0.62309000   -0.49386700
Se    4.45114000    4.24620000   11.98305000     -0.601086   -0.69100000    1.19493300
Se    1.77847000    7.92329000    3.86676000      0.131116    0.01063300   -0.69517700
Se    4.02854000   10.08488000   15.33071000     -0.408145    0.58563000    0.52730000
Se    6.35444000   12.08862000    6.82869000     -0.256358    0.52140600    0.78183200
Se    4.21299000   17.97197000   18.46159000      0.317823   -0.20862600   -0.70313600
Se    2.36922000   21.94690000    6.23701000     -0.189678   -0.85923400   -0.14767500
Se    5.37145000   22.22746000   15.42439000      0.651322   -0.59400100    0.99947100
Se   11.02890000    1.95105000    7.23104000      0.704598   -0.40581700   -1.01555700
Se   11.01644000    4.22609000   16.94069000      0.364010   -0.09901100   -0.91975700
Se   10.09409000   10.31371000    6.71258000      0.031476   -0.21467600    0.10947200
Se    7.43698000   10.85191000   13.93697000     -0.517794   -0.34778200    1.89772700
Se    9.17947000   15.14886000    8.70998000     -1.398783    1.01443000    1.06778800
Se   11.16102000   18.30042000   16.22849000     -0.146795   -0.36084600   -1.10121600
Se    8.10727000   18.87966000    3.76072000     -0.010359    0.55598100    0.95749500
Se   10.12452000   20.64940000   16.79850000     -0.061802    1.02767300    0.29191300
Se   13.70204000    3.71753000    5.25061000     -0.527699   -0.80114900   -0.85458700
Se   18.35231000    3.16563000   14.70417000     -0.166706   -0.41749600   -0.20158700
Se   15.97490000    8.00515000    7.13918000     -0.719200    0.20891400   -0.44878500
Se   16.21563000    8.66788000   14.23198000     -0.018041    0.13734100   -0.67024200
Se   17.05704000   12.18011000    6.71293000      0.612018   -0.35729100    0.89114600
Se   15.72983000   18.89597000   16.43574000     -0.019818    0.20988600   -0.09993700
Se   15.62039000    0.07555000    5.64509000      0.026493    0.56046200    0.44248500
Se   18.81947000    2.57054000   12.13475000     -0.151855    0.58991100    0.46497300
Se    0.57831000    4.61038000    7.35727000     -0.346270   -0.45093000   -0.03324800
Se   22.90033000    3.47827000   12.87495000     -0.286179   -0.55334300    0.82170700
Se   20.05155000   12.57643000    6.65213000     -0.961392    0.16343500    0.43068400
Se   20.81403000   13.45088000   16.41016000     -0.833498   -0.51407100   -0.42908300
Se   22.27616000   13.15695000    6.28668000      0.621171    0.57188400   -0.36062300
Se   19.34744000   18.33290000   14.84448000     -0.457498   -0.45431900    0.42594300
Se   21.82818000   19.52660000    7.76583000      0.613522   -1.35704300   -0.88746500
Se   22.26673000   19.59132000   17.65194000      0.058944    1.72812300    0.39424900
Se    3.12937000    2.74278000    5.61630000      0.480059    0.07867100   -0.33611200
Se    7.33578000    2.18077000   16.06533000     -0.753153    0.91556700    0.83077600
Se    2.32601000    3.15655000    0.57701000     -0.063313    0.51489400   -0.39272300
Se    2.29441000    9.77715000   10.79517000      0.041150    0.99057100    0.26947700
Se    0.98389000   11.89507000    3.10268000      0.622744    0.38508200    0.69074700
Se    2.23045000   15.79360000   14.57585000      1.550660   -0.15513100   -0.97746200
Se    3.94286000   16.09892000    0.89846000      0.585529    1.03113800    0.22847700
Se    4.89956000   19.00033000   13.19693000      0.382225    0.11438800    0.50315200
Se   10.54480000    1.04241000    3.46904000     -0.889256   -0.25009800   -0.38358700
Se   10.67936000    1.47113000   14.29465000      0.383192   -0.15256100    0.16828800
Se    9.33430000   10.10958000    3.48227000      0.148076    0.01080900   -0.55120600
Se    7.19549000    8.78039000   17.48441000      0.372732   -0.13257000   -0.23221200
Se   10.67716000   12.84133000    3.43334000     -0.083417    0.61774400    0.08390600
Se    9.38640000   13.39757000   11.52587000      0.066926    0.23086700   -0.40005400
Se    8.74795000   20.67364000    0.75069000      0.498915    0.04597200   -0.01648200
Se    9.63076000   18.73177000   14.24709000     -0.382980   -0.90111800    0.08571000
Se   18.71356000   22.19326000    7.27712000      0.198639   -0.09010600   -0.71349100
Se   14.64217000    2.38016000   12.57238000      0.824202   -0.16657100    0.87057600
Se   15.17103000    6.43705000    3.59811000      0.373679    0.26341500   -0.04294400
Se   15.34217000    6.13016000   15.87190000     -0.610917   -0.60044200    0.27787900
Se   15.16317000   12.56208000    2.15390000     -0.598895    0.08848900   -1.21504500
Se   14.98852000   16.96325000   12.54937000     -0.426902    0.20932700    0.43786000
Se   16.23594000   16.88006000    2.34476000      0.253025   -0.39067700    0.27150700
Se   14.06979000   20.15335000   15.09407000      0.025377   -0.17393800   -0.56133200
Se    0.21623000   22.50018000    5.07000000     -0.466726   -0.01372900   -0.31033800
Se   21.65845000   22.84721000   13.58865000      0.418356    0.22929500    0.32743900
Se   19.73793000    2.73161000    3.76588000     -0.234813    0.35521900    0.26234300
Se   19.45001000   10.05683000   14.12175000      0.243151    1.07056600    0.13812200
Se    2.64700000   11.35333000    5.55974000     -0.302178    0.28879500    0.50654000
Se   21.55257000   15.36248000   15.01591000      0.396556   -1.41627300   -0.42814900
Se   22.31077000   18.75687000    2.91393000     -0.146050    0.59763400    0.55832700
Se   21.92074000   19.79418000   11.80479000     -0.490216    1.24871000   -0.05326500
Se   22.81999000    5.03707000    5.09244000      0.118233   -0.09440900    0.41364000
Se   21.29446000    4.82286000   15.78102000      0.391738    0.73074900   -0.07940100
Se   21.35169000    9.65382000    2.41871000      0.946918   -0.68042600   -1.30334600
Se    0.19379000   11.82129000   13.42163000     -0.602869    1.84349200    0.04761900
Se    2.40179000   14.30290000    1.18706000      0.245155   -1.61930000   -0.16617500
Se    2.51148000    0.97435000   13.07198000     -0.513047    0.14524400    0.45912400
Se    4.18894000    0.40979000    2.08862000     -0.439556   -1.77956100    1.84727100
Se    6.32133000   19.68618000   14.99123000     -0.745807   -0.08858100    0.02578900
Se    8.74438000    5.09000000    8.16591000      0.159607   -0.15723200   -0.02418000
Se    7.80596000    5.26181000   13.10057000     -0.180765    0.65217900    0.64374800
Se    5.22901000    6.50096000    4.86545000     -0.668540   -0.16268400   -0.24265000
Se    7.66308000   11.47391000   11.84366000      0.595650    0.59599900   -0.53190400
Se    7.90018000   15.39069000    2.30237000     -0.387363   -0.48095800    0.31910400
Se   12.03100000   15.25812000   13.26381000      0.406024   -0.34917500    0.26410600
Se    7.12868000   22.59990000    7.23446000      0.025028    0.06352500   -0.17204100
Se    8.23251000   21.97059000   13.06595000      0.697492   -0.49193700    0.11036500
Se   12.87495000    0.93399000    3.54177000      0.935355   -0.01714500    0.41732000
Se    9.07014000    2.76410000   12.74505000      0.494739   -0.85018400   -0.23812200
Se   14.89725000    9.50662000    4.31883000     -0.028629    0.00853900   -0.16497700
Se   11.08606000   10.70614000   13.26279000     -0.508446    0.75381100    0.12248200
Se   12.59222000   16.22236000    1.87245000     -0.840251   -0.82745400    0.17519000
Se   12.75465000   18.03449000   14.08852000      0.361513    0.02904200    0.53169600
Se   12.07436000   19.61639000    3.87264000      0.047773    0.44659300   -0.28470200
Se   13.44519000    0.07192000   14.60079000     -0.092420   -0.76087900    0.85654300
Se   18.64946000    3.15815000    0.92512000      0.430287    0.19034700   -0.02922200
Se   17.05813000    7.24365000   12.41390000     -0.252059    0.25436600    0.30150900
Se   18.97287000    8.49648000    4.81932000     -0.558591   -0.90844000    0.09984500
Se   20.33651000   13.57616000   11.87635000     -0.364353   -2.13064100    1.14399200
Se   22.42528000   15.44511000    3.37666000     -0.036829   -0.34222700   -1.08139500
Se   18.82891000   15.18190000    9.29779000      0.011098    0.59193500   -0.21391400
Se   19.73037000   21.52732000    3.72260000     -0.031864    1.41269200    0.66122500
Se   17.63774000   21.84100000   11.20573000     -0.466564    0.12993500    0.00007800
