384
23.00800000 23.00800000 19.32000000
Ge    6.20269000    5.32394000   10.74035000     -0.064797   -1.08703100   -0.72775600
Ge    3.18014000    8.45358000    1.46701000      0.058273   -0.11273600    0.20171300
Ge    1.81928000   10.48349000    7.81910000     -0.171541   -0.13901900   -0.71683200
Ge    5.67553000   11.16642000   17.32754000      0.771378   -0.17926700    0.77015500
Ge    5.00725000   15.29340000    9.79238000      1.722366   -0.41772500   -0.78275700
Ge    7.73368000   18.03838000    1.61198000     -0.204995   -0.20467900   -1.24583000
Ge    6.56493000   20.00009000    8.02085000      0.169568    0.11909800    0.27226700
Ge    4.61670000    2.13842000    0.59376000      1.317125    0.42891000   -1.36233600
Ge    8.95475000    6.31906000   11.14052000      0.274737   -0.75857700   -0.57739400
Ge   10.64701000    6.92349000    2.87752000     -0.809966   -0.51586500    0.47360000
Ge   12.12700000   13.04800000   10.46627000      0.043905    1.84209800    0.06020800
Ge   12.12517000   12.60284000   16.98877000     -0.522816   -0.14431500    0.49688900
Ge    9.96396000   16.81037000    7.13894000      0.708761    1.69047300    2.28445800
Ge   14.35478000   17.25822000    0.46879000      0.664806   -1.03085200   -0.32572400
Ge   10.51468000    2.61854000    9.49578000      0.189902   -0.39229700    1.09657100
Ge   16.58663000   21.40733000   18.71125000     -0.408019   -0.89415400   -1.26502200
Ge   19.84688000    5.15613000   10.82246000      0.057730    0.59643300    0.49929100
Ge   18.19027000    8.25206000   18.20705000     -0.037313    0.42921400    0.55313900
Ge   21.76770000   14.09358000    9.99413000      0.197936    1.25377500   -1.08996800
Ge   16.03350000   10.81713000   19.20904000      0.133729    0.45995000    0.36106200
Ge   14.34307000   17.58839000    7.79409000     -0.165532   -0.51624800   -0.47453800
Ge   19.36462000   14.73020000    0.72470000     -0.185335   -0.77330100   -0.64361400
Ge   19.30941000    0.72107000    9.34376000      0.354772   -0.36221900    0.42256300
Ge   17.38050000    1.53923000   17.15965000      2.001754   -0.25698000    0.87253800
Ge    0.87162000    7.70898000   10.59491000      0.337798   -0.51237900    0.03053400
Ge   22.73755000    2.60206000    0.91729000     -0.368384    0.12923900    0.12272000
Ge    0.88902000   12.26863000   10.97799000      0.633266   -0.73793800    0.13278100
Ge    0.34806000   10.96077000    0.96745000     -0.848269    0.44072800   -0.19974000
Ge   22.53569000   15.69391000    7.63699000     -0.421006   -0.29407000   -0.65868200
Ge    0.79841000   15.30142000   16.35520000      0.322323   -0.34900600   -0.24458300
Ge   20.70644000   21.35427000    8.61162000     -0.200565    0.67406000    0.79258900
Ge    3.73184000   21.10643000    0.62693000     -0.402605    0.20196700   -0.69890800
Ge    6.41226000    8.49813000    8.75322000     -0.723891    0.52413900   -1.48194400
Ge    0.95413000    5.65016000   18.47847000      0.188814    0.67457600   -0.13402700
Ge   22.38543000    7.77088000    5.65507000      0.027781    0.07386900   -0.63656500
Ge    3.50109000   12.46007000   16.03014000     -0.719109    0.82059800    0.25443300
Ge    5.49810000   15.65874000    3.80065000      0.020539    0.47479300    0.00544800
Ge    1.84244000   19.37988000   17.87273000      0.882363    0.24412600    0.37078000
Ge    4.55523000   18.72171000    9.42464000     -0.290877   -0.48636100    0.04149900
Ge    2.52940000    0.98791000   15.93531000      0.159344   -0.43480700   -0.54734700
Ge    8.54917000    2.25770000    7.51784000     -0.691721   -0.19147600   -0.13294900
Ge    8.11730000    3.13866000   18.59147000     -0.332409    0.06839600    0.58695100
Ge    7.41995000   12.92845000    3.78665000     -0.101232   -0.10075400   -0.69795200
Ge    7.66303000    8.92572000    1.77339000      0.082216    0.31788100   -0.86627700
Ge    5.26487000   16.84662000    6.61767000      0.673599   -0.88203300    0.01603600
Ge    9.79041000   15.25738000   18.58447000      0.670572    0.19539200    0.42753800
Ge   10.97727000   22.18815000    5.68563000      0.090699    0.06283300    0.94684500
Ge   10.56072000   21.86656000   14.43507000     -0.671073    0.47798100   -0.65468800
Ge   12.96943000    5.74927000    9.83569000     -0.768483   -0.20484000    0.89955200
Ge   13.67021000    6.75499000   18.25972000      0.183899   -0.15812000   -0.56868200
Ge   13.19707000    8.89153000    8.32621000      0.228539    0.28592800    0.04524000
Ge   15.40204000   13.37338000   15.41847000     -0.311585   -0.46049400   -0.60295800
Ge   14.04006000   17.18527000    3.80812000     -0.021134    0.23850600    0.71712200
Ge   13.84706000   19.46397000    1.43213000      0.505433    0.53639600    1.48583500
Ge   15.75777000   21.48558000    9.49869000     -0.532409   -0.03413100   -0.07972100
Ge   16.61872000    1.49645000   14.24977000     -1.300121    1.77109000   -0.47221500
Ge   21.18536000    3.90433000    8.38048000      0.720280   -0.44201800   -0.18333700
Ge   21.20123000    5.47063000   18.36558000     -0.134078   -0.24091700   -0.70150300
Ge   15.74283000   11.02911000    8.64317000     -0.694067   -0.14251100   -0.74108800
Ge   18.92685000   15.03831000   17.23089000     -0.567134    0.10381900    0.55054700
Ge   18.81367000   16.36382000    3.83988000     -0.242210   -0.55233700    0.11222000
Ge   20.92253000   17.01238000   16.73373000     -0.429421    1.34518200    0.45360200
Ge   22.12071000    1.67119000    4.17231000      0.358372    0.94067300    0.50527500
Ge   19.83626000   22.58070000    0.16326000     -0.272406    0.66543900   -0.57170600
Ge    5.30089000    3.07323000    7.02143000     -0.011323    0.20061300    0.68126400
Ge    2.70862000    4.87741000   14.40602000     -0.331714    0.71274900   -0.17272500
Ge    2.40451000    4.99193000    4.30063000      0.560619    1.06826400    0.33373000
Ge    1.27807000    9.81756000   13.21688000      0.814808   -2.39387300    0.37768600
Ge    1.87566000   14.72376000    3.68810000      0.268849    0.10413100    0.53432900
Ge    0.38831000   17.91214000   12.23672000      0.731963   -1.54396300    0.63220500
Ge    0.93982000    1.98004000    6.66485000     -0.225988    0.59659900    0.50159500
Ge    5.46786000   16.61488000   16.51590000     -0.725542    0.29401400   -0.19357700
Ge    9.33524000    3.19163000    3.48825000     -0.213202    0.66957500   -0.10892000
Ge    9.98198000    1.85020000   16.82937000      0.981859    0.41859000   -0.29574700
Ge    8.71340000    8.72562000    5.36561000      0.340144    0.26150000    0.54159300
Ge    8.82301000    8.73964000   14.11550000      1.635113    0.60575000   -0.64513100
Ge   11.64066000   13.98274000    5.95748000      1.182585   -0.09324000   -0.44773800
Ge   10.36372000   13.35821000   13.75829000      0.207313   -0.38609100    0.45393200
Ge    6.74330000   21.85955000    1.91957000      0.731275    0.53666200    0.11217600
Ge    8.27566000   18.97639000   18.12106000      0.297342   -0.03402400    0.51204700
Ge   14.00523000    1.82589000    6.91419000      0.755368   -0.85672500    0.66241600
Ge   11.08125000    5.28778000   14.18356000     -0.124262   -0.40090200    0.78015000
Ge   14.82843000    5.55589000    6.26242000      0.888175    1.08715400    0.30068300
Ge   12.96396000    9.63806000   14.21201000      0.734649    0.59660000    0.11993400
Ge   15.61512000   12.81501000    5.03908000     -0.035329    1.03995900   -0.07745100
Ge   15.46385000   16.94533000   14.86356000      0.350939   -0.60378400    1.06701200
Ge   10.35249000   18.01232000    3.26059000      0.159207   -0.45144900   -0.35223600
Ge   12.91594000   22.08056000   17.16540000     -0.211403    0.71990100   -0.18666700
Ge   17.35968000    4.95907000    4.02598000     -0.585193    0.16846100   -0.28058900
Ge   21.09340000    1.71043000   12.10714000      0.795121    0.08610900   -0.16271500
Ge   18.90370000    8.33563000    7.33740000     -0.231942   -0.02793600    0.03411200
Ge   18.71248000   12.29494000   14.96077000      1.521248   -0.76047200   -0.15388200
Ge    0.14812000   15.08322000    0.91074000     -0.625727    0.75764200    0.10858500
Ge   18.36299000   15.03915000   12.21903000     -0.294992    0.48346400   -0.00833400
Ge   21.68282000   20.32861000    4.95352000      0.426234   -0.52933700   -0.12291900
Ge    0.40923000   20.21871000   15.38734000     -1.477204    1.23780300   -0.50582200
Ge    5.39925000    2.72601000    3.29357000      0.797089    0.07520700    0.86873200
Ge    5.61415000    4.47232000   15.90662000      1.264798    0.77148400   -0.05072400
Ge    3.68911000    9.34778000    4.68900000      0.078890    0.07416700   -0.15781400
Ge    4.43122000    8.21567000   13.12803000     -0.206211   -0.66852400    0.46553700
Ge    5.94760000   14.11159000    0.93065000      0.052173   -0.66408000   -0.24857800
Ge    3.46299000   13.61740000   13.76575000     -0.706046    0.21675900   -0.22504100
Ge    4.26330000    0.40189000    5.64665000      1.097091    0.20515000   -0.06867800
Ge    7.11876000   19.73241000   11.99105000      0.625381   -0.90918600    0.50625600
Ge   11.12689000    4.18556000    5.93007000      0.180427    0.22001200   -0.21193800
Ge    7.80755000    1.04479000   14.03764000     -0.648091    0.84421500   -1.33590600
Ge   11.95491000   10.77646000    3.76580000      0.596285   -0.92749900    0.15158900
Ge   13.73043000    7.05822000   14.17480000     -0.123136    0.60349100   -0.06613200
Ge   11.15190000   13.81337000    1.29534000      0.667669    0.21671200   -0.92292200
Ge    9.21167000   16.69101000   11.25982000      0.175407    0.19900000   -0.28722300
Ge   11.99958000   22.08978000    1.04747000     -1.113906    0.43403400   -0.05466900
Ge   11.95121000   19.13068000   11.58026000     -0.511663   -0.97062800   -0.06000100
Ge   22.23923000   22.30521000   18.04970000      0.174898    0.00568800   -0.24698200
Ge   14.72054000    4.81356000   12.72101000      0.078191    0.22827900   -0.59210000
Ge   16.87210000    8.05910000    2.39014000     -0.460876    0.06804000    0.11875300
Ge   16.28750000    7.48002000    9.44121000     -0.218676   -0.32070300    0.84123900
Ge   17.16551000   11.42719000    3.00705000      0.966007   -0.06181500    0.38114700
Ge   18.84282000   14.75323000    6.82579000     -0.456312    0.31038000   -0.22921300
Ge   17.75956000   19.07004000    2.26247000     -0.337267    0.35657200   -0.50929500
Ge   15.90816000   19.67654000   12.69419000      0.748809   -0.26933200    0.79224300
Ge    1.48430000    0.36012000    2.11919000     -0.121188   -0.35965800   -0.26785800
Ge   22.80363000    0.45274000   10.41291000      0.228891   -0.19485800    0.56439700
Ge   19.88947000    5.25900000    3.99674000      0.533118    0.11344600    0.10331300
Ge   21.01930000   10.89803000   12.26062000     -0.350411   -0.43236900   -0.09063300
Ge   21.82379000   12.93812000    3.55611000     -0.535347    0.53771900    0.55804100
Ge    0.33786000   19.01879000    9.63041000      0.210995   -0.52753300   -0.12543100
Ge    2.97798000   20.49495000    3.65058000      1.486222   -0.25138700    1.63352600
Ge   20.21461000   18.28628000   12.52940000     -0.988174   -1.51026600   -0.53515700
Se    1.49305000    0.49505000   18.82466000     -0.840062   -0.99560000   -0.29744800
Se    1.38083000    2.41053000   10.88317000      0.012990   -0.42065200   -0.55893400
Se   22.83552000    5.19780000    1.84952000      0.301449   -0.40226300    0.03906400
Se   22.21764000    8.28690000   12.55109000      0.749949    0.30452000    0.24720900
Se    3.89626000   12.02551000   19.11675000      0.074933   -0.53280600    0.26651600
Se    1.65444000   14.39673000   10.38099000     -0.293998   -0.34821100    0.29905200
Se    2.55350000   17.18465000    3.18101000      0.699546    0.36262900   -0.68427100
Se    1.81832000   21.00839000    9.44648000     -2.190187    0.28684900   -1.38289800
Se    7.41018000    2.06457000    1.63103000      0.314046    0.52030700   -0.35041200
Se    5.72345000    1.48263000   12.20399000      0.990311    0.07971800    0.17122100
Se    8.31296000    6.58196000    2.10656000      0.362215    0.00006600    0.38625500
Se    9.88205000    8.35599000   11.80806000      0.091294    0.55216600    0.91151000
Se    7.56185000   11.72872000    0.27509000     -0.047704    0.82077700   -0.60956700
Se    5.85635000   14.03360000   13.78493000      0.107212    0.48965500   -0.73159000
Se    5.65479000   19.71335000    1.73009000     -1.281847   -0.34203100    0.34106200
Se    9.55825000   19.19744000   10.54533000      0.007468   -0.62525000    0.13353800
Se   14.50681000    4.16175000    1.43851000      0.396585   -0.47470600    0.00586500
Se   12.10928000    0.90989000   10.72383000     -1.441777   -0.04772300    0.15570500
Se    9.31696000    8.59431000   18.80485000     -0.858145    0.05350300    0.03222300
Se    9.88722000    9.35155000    8.88393000     -0.472198    0.16809000    0.16198300
Se   12.97749000   12.21750000   19.19190000     -0.368962    0.68524700    1.07032400
Se   12.62724000   10.85101000   10.30847000      0.461305   -1.39730200   -0.52588300
Se   15.92221000   14.55669000    0.97722000     -0.422859    0.03035600    0.32331700
Se   11.98304000   17.92494000    8.47691000     -0.537007   -0.08673600   -0.32936300
Se   16.92071000    2.87894000    2.58434000     -0.978201    0.59670100   -0.06301900
Se   14.27676000    0.45408000   10.37439000      0.983753    0.95675800   -0.21426800
Se   18.14305000    5.66294000   18.48027000      0.535749   -0.22201700    0.48370700
Se   21.53355000    8.13563000    9.86241000     -0.449563    0.76458100   -0.22521000
Se   18.38845000   10.58181000    0.95503000     -1.070164   -0.12127900    0.00948500
Se   16.93550000   15.55527000    5.38637000      0.569639   -0.04372700    0.61880900
Se   19.82302000   17.16049000    0.87612000     -0.231751    0.24856500   -0.14973400
Se   17.77906000   17.92137000   11.42555000      0.913246    0.20738300   -0.42544200
Se    3.89269000    4.29922000    2.04508000      0.087601    1.14559400    0.67686400
Se    3.37380000    6.32459000   11.60404000     -1.182815    1.00027000    0.17165700
Se    3.66350000   10.81626000    2.05758000      0.212430   -0.41114700   -0.31264600
Se    5.52486000   13.52948000   11.32881000      0.013368   -0.29369400    0.64362900
Se    4.71909000   13.38688000    3.72809000      0.528284    0.33549500   -0.24787000
Se    3.39934000   16.64717000   10.57585000     -1.154115    1.89611700    0.50720100
Se    4.91123000    0.45380000   18.16669000     -0.185871   -0.40372000   -1.18412000
Se    6.25827000   21.22435000   10.36630000     -0.066199    0.53327600   -1.02078000
Se   10.71749000    7.24153000    5.45021000      0.205210   -0.39879900   -1.43205800
Se    7.37978000    3.14153000   10.69969000      0.005418   -0.76615200   -0.20958400
Se   10.37449000   11.03332000   16.58734000     -0.953544    0.60282500    0.17277000
Se    7.74783000   10.46925000    9.47310000      0.269493   -0.82246800   -1.12383900
Se   10.36013000   18.04619000    0.11945000     -1.343345   -1.92395000   -0.23756400
Se   12.02474000   16.18966000   11.01871000     -0.870136    0.47786100   -0.06215300
Se   13.73962000    0.74903000    1.33805000      0.907264    0.41758900    0.00287400
Se   12.19243000   21.29881000   12.70047000      0.219142    0.78160100    0.44709800
Se   12.23517000    7.72648000    1.06366000      0.033985    0.21703400    0.13225100
Se   19.42760000    7.70656000   11.87352000     -0.877915   -0.42886300    0.02011500
Se   15.39273000    8.34212000    0.05172000      0.738315   -0.28737300    0.28323900
Se   15.07237000   10.63359000   13.03905000     -0.210255   -0.22134800   -0.16031900
Se   18.52183000   13.79312000    2.91456000      1.135358    0.67128200   -0.01145700
Se   14.79533000   14.22950000    9.25734000     -0.267158   -1.60244900   -0.25790000
Se   17.06621000    0.59520000    0.18344000      0.398962    0.34476200    0.05504400
Se   14.44644000   19.72765000   10.84618000     -0.135897    0.05616200   -1.47568800
Se   21.58095000    0.45232000    2.04278000      0.068544   -0.50842800   -0.50065400
Se   22.58093000    5.02605000   11.21323000     -0.840962    1.13122900   -1.47932500
Se   20.70679000    6.13676000    1.66213000     -0.358422   -0.04108300    0.21383300
Se   22.20889000   11.74363000    9.40129000     -0.260745   -1.06138200    0.04088700
Se   21.88598000   13.35135000   19.21637000     -0.616922    0.13018100    0.97977000
Se   21.57069000   15.96046000   11.99835000      0.424230    2.51799000    0.27099800
Se    1.47482000   20.74069000    1.95868000     -1.035838    1.15026500   -2.11715700
Se   19.97890000   20.63506000   14.74098000      0.934369    0.60839000   -1.04718500
Se    3.95827000    4.58907000    8.75044000      0.711120    0.48904300   -0.52577200
Se    0.43195000    6.04529000   15.85989000     -0.290741   -0.13823200   -0.51553600
Se    3.93734000    9.50837000    8.63771000      1.137357   -0.15014400    0.40761400
Se    1.90349000    9.20248000   17.20994000     -0.362505    0.03683800    0.02799500
Se    3.11153000   17.95665000    6.64247000     -0.710010    0.07309300    0.28877300
Se    0.03132000   17.89017000   15.05364000     -0.326840   -1.20703500   -0.93280600
Se    4.43071000   22.64621000   13.36943000      0.320275   -0.35218000   -0.82873200
Se    8.55881000   22.72180000   17.03922000      0.189492    0.02151000   -0.00732700
Se    6.72327000    4.63564000    4.53726000      0.273996   -0.33341800   -0.09457700
Se    6.21628000    4.61377000   18.45830000      0.085303   -0.07002800   -0.31870600
Se    6.57262000   10.04095000    5.63988000     -0.541875   -0.30757000   -0.40075900
Se    4.03360000    6.84630000   15.47938000     -0.095506   -0.53032300   -0.87332400
Se    6.86063000   17.00708000    9.64678000     -0.345299   -0.10402000    0.05481100
Se    7.42952000   16.03841000   18.03469000     -0.459762    0.66086700    0.35179700
Se    8.50374000   18.52249000    6.53652000     -0.476436    0.60518000    0.30238200
Se    6.70790000   21.79821000   18.60544000     -0.569553    0.36144100    0.52189400
Se   16.65894000    1.54864000    7.36591000     -0.934367   -0.12975100   -0.53734700
Se   13.02757000    3.78879000   15.26805000     -1.070537    0.89092100    0.29284600
Se   13.45322000    7.96931000   10.70033000      0.444903   -0.16456000   -0.37008000
Se   13.78449000   11.16155000   16.32598000      1.317531   -0.72127700   -1.11964700
Se   13.74256000   15.63754000    6.17063000      0.257622   -0.13328700   -0.16968800
Se   13.86990000   16.28330000   17.00522000      1.748966    0.65989200    0.23353600
Se   12.81053000   21.47385000    7.78475000     -1.382677    0.16246500   -0.82577400
Se   19.01177000   20.34689000   17.55204000     -0.994299    0.33376400    1.48878300
Se   18.75964000    3.11249000    9.40030000     -0.485135    0.09600300    0.00092400
Se   20.98072000    2.97890000   18.56336000     -0.632192   -0.41849800    0.14936300
Se   17.93993000   10.41498000    9.42438000      0.872319   -0.88429600    0.60536600
Se   17.39482000   11.40438000   16.75776000      0.015755   -1.54851500   -0.67954500
Se   15.14333000   16.26425000    9.99797000      0.459084    1.40711100   -0.57628200
Se   17.77661000   15.85832000   14.76598000      0.054084   -0.09746300    0.56615500
Se   19.06252000   17.69387000    9.31618000     -0.337759   -0.84375300    0.16468400
Se   19.87431000   20.59905000    1.60949000      0.238616   -0.57135900   -0.74634300
Se    4.86079000    0.79041000    8.43285000     -0.552155    0.65199300   -1.01475800
Se    0.79546000    3.43838000   17.48204000     -0.283331   -0.43266600    0.29299100
Se    6.35746000    7.71494000   10.99302000      0.365936    0.23933300    0.95433800
Se    0.94604000    8.64218000    0.21776000      0.495192   -0.57172400    0.34819400
Se    4.69405000   14.27013000    7.61000000     -0.238924    1.02426500    0.28729600
Se    5.16712000   14.15485000   17.38876000     -0.155949   -0.67977800   -0.26205000
Se    3.37112000   20.56151000   10.92525000      1.385312   -0.54823000    1.64320600
Se    0.24551000   16.81024000   18.25844000      0.336075   -0.30102900    0.46141100
Se    8.84042000    0.21328000    9.78327000      0.822013    0.49140400   -0.72759200
Se   11.27375000    4.56456000    2.62342000      0.101005   -0.21759100   -0.18496600
Se   11.47275000    4.57218000   11.57921000      0.464156    0.72864900   -0.74284100
Se    5.35290000    8.19372000   18.97879000      0.168781   -0.19535200    0.22250500
Se   10.61569000   13.46414000    8.15599000      0.855791   -1.01417400    0.42387900
Se    8.43147000   12.75783000   17.30761000      0.201082   -1.28607100    0.95712600
Se   10.19754000   21.60618000    8.21807000      0.804240    0.11062800    0.11848800
Se   12.02643000   14.99795000   16.71914000     -1.444780   -0.08739300   -0.59821300
Se   17.90853000   20.29577000    8.44324000      0.189334   -0.19573300    0.10966100
Se   14.83833000    4.49654000   18.44864000     -0.040297   -0.05071600    0.87542800
Se   15.04346000    4.69771000    9.94929000      0.704362   -0.04358000    0.01250300
Se   11.86011000    9.75346000   19.04430000     -0.895301   -0.30317100    0.41473100
Se   16.94348000   12.42986000   10.34640000     -0.084950    0.42610300    0.08059400
Se   16.68943000   13.32543000   17.85754000      0.072922    1.29528000    0.44277300
Se   15.60012000   18.77006000    5.49128000     -0.405199    0.32143000    0.33315200
Se   16.00557000   21.02797000    1.73821000      0.057353   -0.58323600    0.65611900
Se   21.86336000    1.23371000    8.26616000     -0.391714   -0.80177500    0.10197600
Se   22.83647000    0.44724000   15.64575000     -0.098791    0.21454000    0.54942600
Se   20.09104000    6.06768000    8.38353000     -0.530767    0.66507200   -0.20470600
Se   20.89627000    8.74980000   18.91837000     -1.247112   -2.76591400    2.17369700
Se   21.19718000    9.26018000    7.59249000      0.444257    0.21210000   -0.27713000
Se   21.23218000   10.32164000   17.51978000      0.557135    2.78630200   -2.25369800
Se   20.26187000   16.51970000    6.03578000      0.719766   -0.02036800    0.49283100
Se   17.97211000   17.92215000   18.66387000      0.646651   -0.17374400    0.37949400
Se    2.36787000    1.14714000    8.71081000     -0.280550    0.26883800    0.82631200
Se    3.50133000    3.48162000   16.34240000     -0.973378   -0.79041600    0.39869800
Se    1.22291000    7.94559000    7.27820000      0.274839   -0.06089300    0.69634500
Se   22.77509000    8.79144000   16.23222000      0.597401    0.11530100   -0.50841700
Se    1.44528000   15.84594000    6.08918000      0.399028    0.12485400    0.88516900
Se    1.36828000   13.26602000   17.51088000      0.464397   -0.51802500   -0.97858000
Se    1.15834000   18.87714000    4.40446000     -0.427631   -1.14228200    0.98565000
Se    2.73996000   20.21270000   15.65058000      0.619022   -0.12974200    0.84430100
Se    8.27394000    0.59570000    5.32625000     -0.162617   -0.35495200    0.49631500
Se   12.04988000    1.52120000   18.23457000     -0.221147   -1.52893000    0.02295800
Se    7.36884000    6.65543000    7.11385000      0.282910    0.09313800    0.12941900
Se    7.34223000    7.02173000   14.75878000     -0.592227   -0.44578500    0.11335600
Se    7.94259000   13.72439000    6.04134000     -0.322331   -0.06438400   -0.12239500
Se    7.83069000   16.97340000   14.30696000      0.657286    0.52420200    0.01947700
Se    4.60489000   20.56813000    6.51687000      0.208570   -0.44772000    0.07865800
Se    8.73200000   15.15736000   16.07428000     -0.114789   -0.07866800   -0.87770400
Se   14.10394000   20.66102000    5.36226000      0.751937    0.04316100    0.62530600
Se   15.23301000    1.51930000   16.32190000     -1.107564   -0.20644400   -0.59509400
Se   12.02195000    6.02780000    7.66360000      0.457407    0.47711400    0.14434200
Se   11.31276000    7.52815000   15.38555000     -0.131316   -0.38574500    0.07818900
Se   13.92672000   11.23251000    5.89487000     -1.001969   -0.73664800   -0.42539000
Se   13.64721000   13.05481000   13.06259000     -0.027020    0.32991300    0.25471100
Se   10.27608000   15.91462000    5.14305000      0.002282   -1.01276100   -1.90151900
Se   12.07540000   19.76813000   19.21160000      0.860364    1.02662900   -0.89153000
Se   20.40736000    2.64850000    6.35282000     -0.324051   -0.66980200   -1.20950900
Se   19.11412000   22.46460000   16.23406000     -0.305144    0.79954600    0.45754000
Se   17.31050000    4.64659000    6.40003000     -0.348976   -0.02070500   -0.04585100
Se   17.84468000    6.53169000   16.33639000      0.250265    0.13538400   -0.95072600
Se   20.16436000   10.48057000    4.17199000     -0.279429    1.19783600    0.91698000
Se   17.22518000   13.04074000   13.24825000     -0.834545   -0.55457300   -0.22692200
Se   18.56546000   19.68306000    4.60984000     -0.975511   -1.08996100    0.99778100
Se   17.35152000   22.41665000   13.65518000      0.361912   -1.26684900   -0.88467000
Se    3.41082000    6.44991000    7.05015000      0.121278   -0.54173800   -0.62247500
Se    4.46282000    4.26883000   11.99118000     -0.692297   -0.50645000    0.98917900
Se    1.74752000    7.95637000    3.86729000      0.300968   -0.01855500   -0.59393500
Se    4.02487000   10.03383000   15.41338000     -0.428825    0.56885800    0.39653700
Se    6.36123000   12.07374000    6.83766000      0.100213    0.46882600    0.28351900
Se    4.21768000   18.01369000   18.39396000      0.418182   -0.32496300   -0.61414600
Se    2.40718000   22.00029000    6.25714000     -0.548502   -1.11693100   -0.06769100
Se    5.42893000   22.23812000   15.40105000      0.498140   -0.61068800    0.70358100
Se   11.07703000    1.89800000    7.21616000      0.411529   -0.22411900   -0.76486300
Se   11.06728000    4.20825000   17.04944000      0.370186    0.01830400   -1.08898000
Se   10.08701000   10.29729000    6.75273000      0.084445    0.05057400   -0.15847400
Se    7.40429000   10.87781000   13.90163000     -0.562076   -0.62520100    2.31245600
Se    9.20422000   15.18758000    8.74078000     -1.362748    0.74157200    0.87842400
Se   11.13289000   18.27535000   16.28199000     -0.214546   -0.25386800   -1.18029700
Se    8.08328000   18.86795000    3.82153000      0.101791    0.52522600    0.82204300
Se   10.08237000   20.68435000   16.79935000      0.186162    0.55238300    0.32015700
Se   13.71010000    3.66767000    5.27101000     -0.614531   -0.52110400   -0.88607200
Se   18.31210000    3.16596000   14.67215000     -0.060453   -0.41112700   -0.15557800
Se   15.99828000    7.99272000    7.13533000     -0.802048    0.17952000   -0.14984500
Se   16.22072000    8.68215000   14.25153000     -0.010758   -0.03355300   -0.80705900
Se   17.10328000   12.16631000    6.75258000      0.155868   -0.33679600    0.68255000
Se   15.69960000   18.87111000   16.37296000      0.290618    0.20137700    0.30553300
Se   15.60204000    0.12116000    5.66501000      0.072705    0.42997800    0.29779800
Se   18.83760000    2.54273000   12.18498000     -0.508645    0.78290200    0.48821200
Se    0.52116000    4.61668000    7.31353000     -0.089126   -0.53359700    0.37644400
Se   22.89253000    3.49656000   12.83068000     -0.318688   -1.01914400    1.30262100
Se   20.03038000   12.59786000    6.59865000     -0.854099    0.09100800    0.51491100
Se   20.80222000   13.40745000   16.45267000     -0.905811   -0.25320200   -0.58339400
Se   22.24994000   13.24288000    6.28950000      0.807124    0.44034100   -0.44521700
Se   19.38318000   18.35613000   14.85113000     -0.437709   -0.51191400    0.37985600
Se   21.82192000   19.49289000    7.72960000      0.300814   -0.69561000   -0.52472800
Se   22.24348000   19.61809000   17.63077000      0.217769    1.65758800    0.45139800
Se    3.13105000    2.79221000    5.65414000      0.428179   -0.00838400   -0.62422200
Se    7.32975000    2.22441000   16.01893000     -0.594112    0.78227000    0.86447400
Se    2.33157000    3.14555000    0.59972000     -0.344476    0.57347400   -0.28486700
Se    2.32229000    9.79408000   10.81349000     -0.056556    0.98531300    0.36837300
Se    0.96530000   11.87949000    3.14162000      0.570810    0.24761500    0.38404800
Se    2.24846000   15.77183000   14.51941000      0.755607   -0.36481100   -0.12142200
Se    3.95329000   16.16412000    0.88135000      0.352694    0.55030500    0.06924100
Se    4.93250000   18.96064000   13.23951000     -0.074175    0.02415600   -0.12220900
Se   10.52798000    1.02792000    3.39684000     -0.503939   -0.37769500   -0.42194900
Se   10.67045000    1.49368000   14.25504000      0.303949   -0.11539200    0.45658100
Se    9.28926000   10.17393000    3.47042000      0.182087   -0.28692300   -0.30791000
Se    7.15324000    8.78933000   17.47043000      0.273914   -0.13929900    0.13480000
Se   10.73845000   12.85729000    3.42725000     -0.240281    0.70621100    0.07583600
Se    9.38791000   13.39956000   11.53238000      0.214894    0.24587800   -0.27707300
Se    8.75841000   20.64555000    0.74432000      0.427562    0.13952000    0.13474400
Se    9.60561000   18.74109000   14.23348000     -0.262063   -0.97483300    0.25014600
Se   18.66585000   22.20477000    7.24519000      0.430687    0.04517400   -0.65020400
Se   14.69251000    2.41102000   12.56298000      0.723396   -0.57016900    0.78136000
Se   15.11914000    6.45581000    3.57121000      0.551453    0.23041100    0.06180500
Se   15.32734000    6.17444000   15.88577000     -0.516742   -0.57751500    0.35093600
Se   15.13061000   12.58037000    2.16931000     -0.348881    0.10449400   -1.21646800
Se   14.99479000   16.91268000   12.56168000     -0.388933    0.38737900    0.26211300
Se   16.26805000   16.92259000    2.36134000     -0.181665   -0.57289900    0.01297900
Se   14.04307000   20.13919000   15.12772000      0.036384   -0.05122100   -0.80953000
Se    0.22658000   22.51476000    5.05946000     -0.639039    0.02772900   -0.32100700
Se   21.67938000   22.90179000   13.59535000      0.289509   -0.25797900    0.22896700
Se   19.73212000    2.68982000    3.75705000     -0.491854    0.74452300    0.17687700
Se   19.44925000   10.04547000   14.09959000      0.145896    0.90470200    0.17835200
Se    2.64021000   11.36054000    5.59170000     -0.139860   -0.10705300    0.31858200
Se   21.53025000   15.36633000   15.06744000      0.564533   -1.43892500   -0.52688300
Se   22.31193000   18.73779000    2.85998000     -0.164439    0.66264400    0.57077000
Se   21.93097000   19.72877000   11.78510000     -0.319733    2.30490400   -0.36075500
Se   22.83332000    5.03573000    5.08427000     -0.105184   -0.16161300    0.09109900
Se   21.31492000    4.77017000   15.73515000      0.638569    0.91643600    0.16837800
Se   21.30360000    9.64496000    2.41023000      1.160326   -0.68835900   -1.49487600
Se    0.19368000   11.83684000   13.37466000     -0.910454    2.19996300    0.21927900
Se    2.40984000   14.29683000    1.18283000      0.059446   -1.01179200   -0.12060100
Se    2.53609000    1.01858000   13.01344000     -0.631971    0.22680300    0.44443200
Se    4.21511000    0.40384000    2.15630000     -0.517771   -1.53537600    1.36948200
Se    6.32859000   19.62241000   14.95315000     -0.293297    0.19200400    0.53884500
Se    8.75222000    5.06662000    8.18045000      0.064544   -0.06136100   -0.14994800
Se    7.81188000    5.24877000   13.11150000     -0.232676    0.69351700    0.61861100
Se    5.31100000    6.47034000    4.82857000     -0.832900    0.11225200   -0.11163900
Se    7.67190000   11.44781000   11.81825000      0.718574    0.86071300   -0.73806300
Se    7.88811000   15.41073000    2.25806000     -0.378780   -0.53299100    0.38777000
Se   12.04853000   15.29549000   13.25973000      0.225801   -0.35989500    0.09167400
Se    7.15131000   22.58872000    7.26391000      0.079573    0.07937200   -0.06875700
Se    8.25534000   22.01426000   12.99017000      0.810939   -0.82115900   -0.03004900
Se   12.89100000    0.87835000    3.53795000      0.665360    0.03143700    0.19372100
Se    9.05795000    2.81003000   12.77295000      0.561148   -1.10590500   -0.23612900
Se   14.94512000    9.45173000    4.31438000     -0.021835   -0.09817000   -0.26416100
Se   11.03392000   10.72447000   13.25867000     -0.192034    0.49983800    0.26703200
Se   12.60173000   16.25296000    1.86625000     -0.579644   -0.69248800   -0.02088700
Se   12.73647000   18.07309000   14.13077000      0.159488   -0.13656600    0.56050100
Se   12.08075000   19.64539000    3.89665000      0.092795    0.44031600   -0.23407600
Se   13.44442000    0.05449000   14.56318000     -0.191476   -0.66777800    0.87754200
Se   18.72496000    3.14344000    0.95455000      0.333570    0.23012000    0.17269000
Se   17.09962000    7.21935000   12.38035000     -0.226737    0.42926600    0.48388700
Se   18.98825000    8.48676000    4.78428000     -0.519837   -0.73717900    0.24055100
Se   20.40500000   13.57748000   11.92307000     -0.577049   -1.86471300    1.20180000
Se   22.45152000   15.49377000    3.37815000     -0.382962   -0.50812900   -0.98552400
Se   18.80197000   15.15257000    9.27711000      0.004294    0.53118700   -0.26965200
Se   19.71808000   21.48709000    3.80837000      0.245461    1.79227000   -0.34840200
Se   17.65636000   21.83196000   11.09364000     -0.069577    0.21635400    0.65040300
