384
23.00800000 23.00800000 19.32000000
Ge    6.15034000    5.11635000   10.61610000     -0.537718    0.64589500    0.36319200
Ge    3.36269000    8.47361000    1.49772000     -0.844440    0.20153900    0.01141800
Ge    1.84246000   10.11764000    7.77618000      0.110512   -0.13827400    0.58886900
Ge    6.04013000   11.36049000   17.44529000     -0.431783    0.03086900    0.28168000
Ge    5.16589000   15.38398000    9.79017000     -0.465288   -0.39802300   -0.06771200
Ge    7.73945000   18.55079000    1.54832000     -0.820940    0.15382200    1.02952100
Ge    6.46717000   20.10814000    7.92571000     -0.500025   -0.29592900    0.54919900
Ge    5.12391000    2.54610000    0.65703000     -0.798160    0.07620600   -0.20465000
Ge    8.68882000    6.44051000   10.97226000     -0.038117   -0.08658300    0.42507800
Ge   10.21655000    7.07669000    2.77354000      1.423212   -0.72515500   -0.49363500
Ge   12.52461000   13.31671000   10.26366000     -0.726443   -1.17401300    0.71268400
Ge   12.11969000   12.31592000   16.94781000     -0.209843   -0.18387300   -0.03204200
Ge   10.10994000   17.09033000    7.32880000     -1.080160   -0.54654400   -0.73672500
Ge   14.11390000   17.51397000   19.00656000     -0.003132    0.64455500    1.46016700
Ge   10.75996000    2.70510000    9.73848000     -0.415086    0.23585600   -0.32483900
Ge   16.30789000   21.45605000   18.86839000      0.229380    0.35552300    0.21964300
Ge   19.42439000    5.13278000   10.84024000      0.399039    0.22156300   -0.14430400
Ge   18.15584000    8.38693000   18.52715000     -0.144019   -0.29055600   -1.03531100
Ge   21.32349000   14.40265000    9.51554000      0.229917   -0.46999700    0.49063300
Ge   15.96197000   10.90003000    0.06338000     -0.536259   -0.32905400   -0.84334800
Ge   14.26674000   17.69162000    7.68300000      0.287238   -0.73237800    0.37604800
Ge   19.73284000   14.62258000    0.31082000     -1.415128    0.91719900    0.63220700
Ge   19.29551000    0.91045000    9.38804000      0.046922   -0.67186200    0.19000100
Ge   17.56351000    1.47311000   17.27852000     -0.369264    0.84050900   -0.94568900
Ge    0.90419000    7.71527000   10.59423000     -0.551892    0.32543500   -0.51038000
Ge   22.43777000    2.16023000    1.51651000      0.089265   -0.03979700   -0.03855100
Ge    0.89370000   12.15692000   10.86348000     -0.654842    1.60440600    0.69939700
Ge   22.75140000   10.82907000    1.16835000      0.932297    0.52192000   -0.60978200
Ge   22.49855000   16.25310000    7.56778000      0.778811   -0.68341600    0.90447500
Ge    0.97364000   14.90036000   16.15304000     -0.323544   -0.05401900    1.49602700
Ge   20.76995000   21.60956000    8.48470000     -0.073857   -0.84201000   -0.22086700
Ge    3.65387000   21.19777000    0.67893000      1.024824   -0.43632800    0.08690300
Ge    6.26721000    8.49321000    8.35257000     -0.230549    0.46352600    0.56348100
Ge    0.96031000    6.06461000   18.16074000      0.231759    0.02699100   -0.28211300
Ge   22.86502000    7.74156000    5.15240000     -0.972104   -0.15965800    1.15990400
Ge    3.28785000   12.63900000   15.99921000      1.229142   -0.74709000   -0.92748600
Ge    5.84528000   15.62650000    4.18205000      0.563557   -0.82192300   -0.46642800
Ge    2.26045000   19.28389000   18.03112000     -0.190956   -0.02841700    0.18105700
Ge    4.56019000   18.51681000    9.49052000      0.552114    1.78081600   -0.29477200
Ge    2.52148000    0.94505000   16.00183000     -0.403438   -0.45579600   -0.15303400
Ge    8.45643000    1.84722000    7.73143000      0.180763    0.16877000   -0.49215500
Ge    7.84909000    3.28290000   18.39927000      0.412761    0.61071400   -0.71467700
Ge    7.40776000   12.84298000    3.24167000      0.157684   -0.02225300    0.51865400
Ge    7.49471000    8.90032000    1.66588000     -0.370907   -0.01849400    0.50773300
Ge    5.49224000   16.70287000    6.77795000      0.057666    0.86424600   -0.22864600
Ge   10.36933000   14.96893000   18.64554000     -0.628398   -0.98053600   -0.75556300
Ge   11.05473000   22.29915000    5.96791000     -0.525035   -0.08609800   -0.06433000
Ge   10.19664000   22.23451000   14.32416000      0.276903   -0.38974400    0.18364000
Ge   12.96962000    5.63068000   10.02913000      0.237280   -0.13689700    0.81640600
Ge   13.42209000    6.59966000   17.88123000     -0.377747    0.03831700    1.06801800
Ge   13.67141000    8.37905000    8.04683000     -1.416553    0.41692700    0.21050600
Ge   15.29765000   13.40523000   15.20363000     -0.074423   -0.12188200   -0.33843000
Ge   13.85084000   17.23452000    4.11155000      0.220951    0.01372800   -0.84023400
Ge   14.39738000   19.68607000    1.63726000     -0.860282   -0.27496900   -0.00312300
Ge   15.64711000   21.72291000    9.43533000      0.515585   -0.13815600    0.11303000
Ge   16.26522000    1.42962000   14.21377000      0.323278    0.20209200   -1.12472800
Ge   21.32239000    3.55230000    8.48377000     -0.913387    0.24527200   -0.66128800
Ge   21.24558000    5.56727000   18.10776000     -0.414539   -0.24461200    0.05891500
Ge   15.63682000   10.84399000    8.75561000      0.184854   -0.08795800    0.56394200
Ge   18.49201000   14.81947000   17.27538000      0.043642    0.06485700    0.09619200
Ge   18.53842000   16.12973000    3.58515000      0.239770    0.81552800    0.10628800
Ge   20.63184000   17.33087000   17.15811000      0.284030    0.05578100   -0.16771500
Ge   21.87548000    2.16599000    4.60412000      0.245914   -0.19893000   -0.53511200
Ge   19.56971000    0.03448000   19.21821000      0.122085    0.12481100   -0.01521500
Ge    5.25041000    3.11779000    7.25764000      0.246035    0.32268000   -0.51654600
Ge    2.57159000    5.00428000   14.19499000     -0.117044   -0.20267700    0.69137600
Ge    2.35964000    5.89522000    4.12735000      0.552731   -1.59672000    0.21789300
Ge    1.18455000    9.59135000   13.34559000      0.433170    0.99064300    0.68467100
Ge    1.76758000   14.51262000    3.63244000      0.101169    0.04924400   -0.36647700
Ge    0.62011000   17.58682000   12.24630000     -0.190301    0.62540500    0.12721500
Ge    1.22580000    1.93123000    6.75023000     -0.173429    0.37016600   -0.14839100
Ge    5.43387000   16.44505000   16.06405000      0.034626   -0.45929600    0.25350800
Ge    9.42358000    3.17118000    3.22756000      0.600388    0.36407500    0.23222600
Ge   10.05404000    2.30491000   17.20156000      0.061783   -0.95904300   -0.49957900
Ge    9.08955000    8.77186000    5.36533000     -0.106198    0.08130600   -0.12652300
Ge    9.20154000    8.95859000   13.88512000     -0.756266   -0.28435400    0.93663000
Ge   11.72542000   14.05632000    5.71991000     -0.104489   -0.00743900   -0.02871400
Ge   10.47618000   13.48473000   13.95767000      0.106258    0.66513200   -0.22454000
Ge    6.79768000   21.92420000    1.49878000     -0.038330   -0.43263100    0.49764800
Ge    8.13982000   18.85061000   18.44005000      0.465374   -0.05505100   -1.01502200
Ge   14.11066000    1.71632000    7.43256000     -0.022050    0.83419700   -1.25500700
Ge   10.97331000    5.12462000   14.82083000     -1.513505    0.64523100   -0.16836700
Ge   14.91693000    5.76423000    5.89168000     -0.116661   -1.09744600    0.39838100
Ge   12.82179000    9.92299000   14.22690000      0.292165   -0.76734000   -0.34512400
Ge   15.95026000   13.15767000    5.26736000     -0.358990   -0.51815400   -0.06076400
Ge   15.70870000   16.14606000   14.89958000      0.811887    0.34985000    0.17139800
Ge   10.34958000   18.07084000    3.40316000     -0.268524    0.25303000   -0.29781800
Ge   12.83757000   22.07662000   17.11651000     -0.320016   -0.78712400    0.03461800
Ge   17.27218000    4.69672000    3.77931000      0.628552    0.72501200    0.83788700
Ge   20.99931000    1.72686000   12.10835000     -0.325155   -0.45387400    0.39930300
Ge   18.90764000    8.10272000    7.13248000      0.179950    0.38462200   -0.00810300
Ge   18.72708000   11.87722000   15.12991000     -1.388819   -0.86776500   -1.13911400
Ge    0.20275000   15.51615000    0.94721000      0.453523    0.12834100    0.50749500
Ge   18.40786000   14.95475000   12.28854000      0.014608   -0.48013200    0.35582100
Ge   22.24530000   20.07327000    4.64039000     -0.378823    0.62581200    0.52176300
Ge   22.98323000   20.15358000   15.17743000      0.578695   -0.20403300    0.36138400
Ge    5.81291000    2.48011000    3.71668000     -0.717238    0.26260100   -0.44916500
Ge    5.68908000    4.34239000   15.76233000     -0.622041   -0.26465700    0.36469100
Ge    4.10676000    9.26299000    5.00422000     -0.539645    0.22746600   -0.28723300
Ge    4.50539000    7.84640000   13.39748000      0.422800    0.26144100    0.40924100
Ge    5.94746000   13.80050000    1.10312000     -1.100974    0.32272400   -0.48960400
Ge    3.09212000   13.39215000   13.39443000      0.212489   -0.09765100   -0.03230000
Ge    4.75756000    0.55073000    5.63305000     -0.815947   -0.13004900   -0.12280200
Ge    7.37158000   19.70335000   12.01988000      0.165035    0.60505600   -0.21690900
Ge   10.85527000    3.96162000    6.14919000      0.899060    0.10243100   -0.53227900
Ge    7.56751000    1.04091000   13.76584000      0.982115   -0.38014100    0.53003300
Ge   12.05398000   10.48096000    4.32347000     -0.687124    0.01445400   -0.06896300
Ge   13.95290000    7.47194000   14.17412000     -0.258723   -0.43648900   -0.02335500
Ge   11.92942000   14.01900000    1.03557000     -1.085756    0.71979500    1.46329900
Ge    9.19223000   16.54996000   11.42555000      0.012463    0.20214200   -0.23082100
Ge   11.64060000   22.45025000    1.28109000      0.694772   -1.14905700   -1.32456000
Ge   11.75393000   18.99188000   11.53909000      0.114971    0.12621800    0.08400900
Ge   22.60948000   22.40391000   18.30301000     -0.799467    0.47960700   -0.62938400
Ge   15.04185000    4.91999000   12.78612000      0.119950   -0.65431800    0.30867300
Ge   16.79360000    8.16575000    2.52001000      1.663011   -0.49318500   -1.06459500
Ge   16.40075000    7.68620000   10.02931000      0.954299   -0.04936800   -0.61216400
Ge   17.53958000   11.64916000    3.07211000      0.293255    0.42777700    0.10420300
Ge   18.88882000   14.91329000    6.68662000      1.417543    0.61487600    0.30052000
Ge   17.38789000   19.51389000    2.44227000      1.037238   -1.01767400    0.43825600
Ge   15.67589000   19.07022000   12.84476000      0.292079    1.00935200   -0.20438700
Ge    1.36247000    0.14995000    2.18709000      0.475971    0.40018900    0.41692600
Ge   22.49566000   22.99903000   10.74847000      0.366961   -0.55203100   -0.16122400
Ge   19.91030000    5.51361000    4.20118000     -0.064115    0.24627800   -0.37868500
Ge   20.45442000   10.97628000   11.85772000      0.093476    0.07358300    0.29462200
Ge   21.69886000   13.04120000    4.01997000      0.590946    0.19659100   -1.02721400
Ge    0.76089000   18.79866000    8.91973000     -0.222902    0.73420000    0.17299600
Ge    3.06654000   20.39300000    4.39081000     -0.299319   -0.23406600   -1.62336200
Ge   20.12644000   18.33450000   12.33045000      0.521072    1.85479700    0.52953600
Se    1.95805000   22.68690000   18.76181000      0.251889    1.28246400   -0.71676500
Se    1.08001000    2.15413000   11.21159000      0.268089    0.30333500    0.16325000
Se    0.17223000    4.63336000    1.71874000     -0.229898    0.88576500    0.19255000
Se   22.40222000    8.37572000   12.41296000     -0.760963   -0.45177300    0.06087000
Se    4.29602000   11.99118000   19.31658000     -0.387210   -0.32541500    0.32747400
Se    1.71338000   14.53971000   11.18286000     -0.100633   -0.92077500   -0.68216200
Se    2.48126000   17.23555000    2.33100000      0.005284    0.37915000    0.34429600
Se    1.68405000   21.35000000    9.24987000      0.190356   -1.31482300    0.96595400
Se    7.54883000    2.44285000    1.33093000      0.064761   -0.69802000    0.72968100
Se    6.05685000    1.58586000   12.03616000     -1.777680    0.36789000   -0.59923200
Se    7.95017000    6.46843000    2.51906000     -0.471946    0.66061700   -0.02562300
Se    9.95377000    8.49426000   11.62458000      0.332336   -0.93207100   -0.04388000
Se    7.70352000   12.03607000    0.28603000      0.048351   -0.69853800    1.46091300
Se    5.76551000   13.85646000   13.44067000     -0.813527    0.24337300    0.17595300
Se    5.20074000   19.59324000    2.18164000      0.699443    0.14559600   -0.28713200
Se    9.42459000   19.02558000   10.45648000     -0.213450   -0.10756100    0.22058200
Se   14.60669000    4.14394000    2.04808000     -2.665207    1.43241300   -0.90025400
Se   11.71218000    0.71835000   10.72074000      0.710605   -0.22115700    0.03803000
Se    8.81523000    8.70193000   18.84672000      0.743944   -0.21769500    0.27819600
Se    9.92856000    9.24414000    9.07608000      0.527016    0.25140800   -0.58473200
Se   13.29914000   12.62843000   19.17112000      0.524328   -1.13001600   -1.00889600
Se   12.86191000   10.54344000   10.07229000      0.625970    1.16583800   -0.29894000
Se   15.80326000   14.67443000    1.16233000      0.053756    0.16721500   -0.35758900
Se   11.88883000   18.16454000    8.40866000      0.773364    0.24997600    0.13631400
Se   16.29597000    2.84471000    2.54958000      1.684577   -1.55418600    0.56294900
Se   14.11561000    0.69624000    9.84705000     -0.737895    0.00045900    1.02177300
Se   18.30241000    5.57469000   18.54402000      0.807119   -0.45358900    0.63483800
Se   21.35235000    8.27292000    9.43561000     -0.022657   -0.11102000   -0.37667300
Se   18.18509000   10.55305000    0.87243000      0.642448    0.71823300    0.97060100
Se   16.97224000   15.59121000    5.64393000     -0.532918    0.29030800   -0.21752900
Se   19.47413000   17.25203000    1.23725000      0.797960   -0.77981500   -0.77410800
Se   17.94499000   17.92269000   11.38536000     -0.180858   -0.16795900   -0.50124900
Se    4.27165000    4.60304000    2.30490000     -0.162759   -0.67268700    0.05438500
Se    2.99161000    6.67977000   11.56564000      0.421342   -0.92719100    0.61499100
Se    3.86987000   10.62449000    2.43983000      0.155891    0.12495300   -0.30099700
Se    5.53318000   13.01126000   11.31539000      0.263058    0.35377900   -0.75995100
Se    4.64358000   13.45733000    3.62613000      0.521949    0.58621200   -0.06328300
Se    3.07891000   17.16885000   10.56461000     -0.325964   -1.48329700    0.72393200
Se    4.94972000    0.78973000   17.81210000     -0.038129    0.37367500    0.23587000
Se    6.46130000   21.71039000   10.04216000     -0.270792   -0.90547200    0.54739100
Se   11.08259000    7.16329000    5.02126000     -0.300303    0.47112400    0.22459000
Se    7.50007000    2.76450000   10.43734000     -0.208432    0.60947800   -0.01594800
Se    9.79561000   11.18822000   16.27235000      1.453577   -0.92334300   -0.71922800
Se    7.85984000   10.21605000    9.22192000     -0.685441    0.32588200   -0.08286500
Se    9.90180000   17.04669000    0.31695000      0.274298    1.49585500    0.21193600
Se   11.70371000   16.48055000   10.99868000      0.733591   -0.40149600    0.03720900
Se   14.08391000    0.89964000    1.36004000      0.400059   -0.16537800   -0.23814600
Se   12.34110000   21.55890000   13.09285000     -0.663544   -0.37234200   -0.14489900
Se   12.34979000    8.19315000    0.93828000     -0.428792   -0.32960400    0.15632900
Se   19.47935000    7.63993000   12.10902000      0.205365   -0.33642700   -0.08173200
Se   15.82440000    8.11880000   19.29772000     -0.980827    0.10673100    0.20619500
Se   14.72677000   10.78698000   12.89620000      0.050718   -0.08711800   -0.72211000
Se   18.97321000   13.85822000    2.66117000     -0.217921   -0.80252600   -0.02121200
Se   14.53026000   14.03205000    9.20894000      1.521656    0.89627000   -0.41628300
Se   17.06655000    0.92370000    0.24686000     -0.221494   -1.03366500    0.42506200
Se   14.44138000   19.90784000   10.55890000      0.018298   -0.78402300    0.45910300
Se   21.21134000   22.88383000    1.82661000      0.272590   -0.18262300    0.48453700
Se   22.30571000    4.87701000   10.38026000     -0.326867    0.23828500    0.97068200
Se   20.78067000    5.69207000    1.59521000     -0.251819    0.32937600    0.60050400
Se   22.07047000   11.82378000    9.35186000      0.259004    0.50396400   -0.11858900
Se   21.82609000   13.61287000    0.30831000      0.793630   -0.46372600   -0.42813500
Se   21.46933000   16.71693000   11.44533000      0.606170   -1.85656400   -0.52466900
Se    1.54807000   20.77416000    1.81591000     -0.604190   -1.03264200    0.65190800
Se   19.84789000   20.97693000   14.54228000      0.405317   -0.48028700    0.00649600
Se    4.10054000    4.78400000    8.66158000     -0.186419    0.21976800    0.64271000
Se    0.33930000    6.35723000   15.35197000      1.314762    0.83977300    0.54332900
Se    4.10787000    9.57596000    8.80800000      0.155326   -0.13284200    0.31160300
Se    1.61663000    9.11851000   16.93502000     -0.419836    0.23003600    0.82923800
Se    2.65893000   17.56707000    6.58980000      0.932972    1.42422100    0.47760900
Se    0.07375000   17.42012000   14.72873000     -0.510560    1.00671500    0.55460900
Se    4.58051000   22.44287000   13.34161000     -0.349990    0.13608000   -0.24575100
Se    8.65855000   23.00365000   16.96474000      0.138659   -0.11588900    0.05186000
Se    7.15083000    4.25718000    4.73308000      0.189211    0.73680900    0.19903400
Se    6.27155000    5.10513000   18.03212000     -0.028675   -0.20492000    0.64240500
Se    6.41744000    9.71952000    5.75687000      0.611199    0.47651700    0.14225300
Se    4.21896000    6.29112000   15.77386000     -1.221872    1.54210200   -0.90570300
Se    6.98605000   17.20672000    9.48458000     -0.684733   -0.19540000    0.07029300
Se    7.46859000   16.36018000   17.85291000     -0.722505   -0.48760800   -1.03440500
Se    8.45601000   18.99627000    6.73531000      0.812611   -0.24993600    0.32271100
Se    6.18783000   21.86326000   18.31272000     -0.287324   -0.25309200    0.35927600
Se   17.01171000    1.66250000    7.05839000     -0.565814   -0.00550200   -0.33527900
Se   13.02446000    4.04574000   15.22683000      0.901792   -0.51845800    0.53690400
Se   14.00060000    7.83533000   10.63295000     -0.886132    0.57931100    0.46140500
Se   13.89700000   10.73605000   16.16846000     -0.032198    0.83957400    0.89232800
Se   13.94562000   15.28805000    5.76236000     -0.063421    0.12605900    0.49071400
Se   14.05989000   16.32205000   16.99393000     -0.620353   -0.59147400   -0.63459500
Se   12.95527000   21.54627000    7.87191000     -0.302103    0.01377500    0.10233600
Se   18.72920000   20.38336000   18.09950000     -0.602153    0.70651600   -0.07633000
Se   18.26995000    3.04857000    9.16910000      0.333281    0.24072500    0.62833200
Se   20.96333000    2.97710000   18.65607000      1.007206   -0.51942300   -1.07206300
Se   17.81605000    9.99056000   10.22436000     -0.642696    0.39987400   -0.29258000
Se   17.09043000   10.57400000   16.80105000      0.349139    0.29439700   -0.13515500
Se   15.32634000   16.27008000    9.73716000     -0.758148   -0.32340000   -0.82015500
Se   18.50253000   15.91317000   14.57063000     -0.669715   -0.23194400    0.32708000
Se   19.04609000   17.20185000    9.26749000     -0.318667    0.69486100   -0.58208200
Se   19.69020000   20.33153000    1.65297000     -0.000569    0.67715500    0.99194100
Se    4.47841000    1.10971000    8.42360000      1.161871   -0.65679800    0.26404500
Se    0.65268000    3.38666000   17.86065000      0.233934   -0.08443100    0.00841900
Se    6.36289000    7.67116000   11.13561000     -0.181932   -0.46761400   -0.77844100
Se    0.69085000    8.38610000    0.37462000      0.826975    0.33097900   -0.10682100
Se    4.92983000   14.51712000    7.32421000     -0.415140   -0.51911500    0.90949100
Se    5.12309000   13.94160000   17.22434000     -0.348286    0.11293000    0.21214100
Se    3.46737000   20.38429000   11.23395000     -0.236826   -0.21575100   -0.91889100
Se    0.75140000   16.72793000   18.17148000     -0.454470    0.05950200   -0.81952800
Se    8.71673000    0.65729000   10.11725000      1.105846    0.23217400   -0.34943000
Se   11.37374000    4.65611000    2.73598000     -0.925017    0.06480300   -0.26848700
Se   11.29970000    4.62053000   11.49061000      0.406123    0.34382100   -0.01172600
Se    4.92183000    8.12720000   19.14617000      0.615864   -0.73034300   -0.23764400
Se   10.95500000   13.59046000    8.39675000     -0.345004    0.38701000   -0.36368800
Se    8.57528000   12.55048000   17.51930000     -0.542444    2.08708700   -0.40489200
Se   10.60069000   21.63389000    8.38306000      0.575660   -0.43719200   -0.18544100
Se   11.78267000   14.90100000   16.46884000      0.488868   -0.26124700    0.39871700
Se   18.38145000   20.61109000    8.63811000     -0.085638   -0.04362400   -0.49110200
Se   14.67145000    4.51726000   18.96783000      0.322701    0.14173700   -0.01644600
Se   15.10710000    4.55930000   10.35826000      0.111274   -0.02050800   -0.73000800
Se   11.63752000   10.12305000    0.01344000     -0.184488   -0.02084600    0.10171900
Se   16.89792000   12.53269000   10.28864000     -0.413645   -0.92523300   -0.05056600
Se   16.57515000   13.29678000   17.83918000      0.289640    0.04256400   -0.14826400
Se   15.59674000   18.89561000    5.40197000      0.205869   -0.65446600    0.48116400
Se   16.12552000   21.52297000    2.37757000     -0.715710    0.38453200   -0.62700500
Se   21.95453000    1.08431000    8.41065000      0.385617    0.30332700   -0.26452800
Se   22.70287000    0.87391000   15.95061000      0.252803   -0.23962400   -0.24641400
Se   19.71583000    5.91891000    8.34296000      0.191740    0.48152000   -0.19283000
Se   20.67973000    8.37181000    0.02041000      0.377879   -0.41354500   -0.96776000
Se   21.30560000    9.32537000    7.26360000     -0.415827   -0.33800600    0.12785500
Se   20.80554000   10.51736000   17.38453000      0.506714   -1.00827300    0.81949200
Se   20.52409000   16.86666000    6.45905000     -1.742206    0.12918000   -0.76850100
Se   18.11546000   18.10525000   18.67478000     -0.032988   -0.97771100   -0.04759500
Se    2.28315000    1.17229000    9.00442000     -0.794205    0.49703400   -0.42740300
Se    3.02272000    3.39648000   16.60260000      0.078245   -0.26756200   -0.62518600
Se    1.07866000    7.64236000    7.69760000      0.689203   -0.29411600   -1.42820200
Se   22.16190000    8.88409000   16.25254000     -0.054062    0.37060400   -0.34059100
Se    1.62689000   15.56101000    6.33757000     -0.509077   -1.29874200    0.30179900
Se    1.38999000   12.72661000   17.29683000     -1.249066    0.52837900    0.18815000
Se    1.06052000   18.24971000    4.52970000      0.112562    0.63266600   -0.31569000
Se    2.72868000   20.16208000   15.87386000     -1.015201    0.21479900   -0.72795800
Se    8.51287000    0.21362000    5.61706000     -0.176953    0.16516700   -0.47869500
Se   12.05618000    0.94160000   18.40078000     -0.587237    0.89059500    0.21273400
Se    7.21573000    6.47203000    7.33996000      0.232405   -0.24826000   -0.65135300
Se    6.92307000    7.06877000   14.69579000      0.541717    0.20487500   -0.43004300
Se    7.97816000   13.73152000    5.57281000     -0.213755   -0.29764800   -0.29360300
Se    7.72964000   17.11693000   13.98357000     -0.257678   -0.44435200    0.62161900
Se    4.39806000   20.32749000    6.47980000      0.308840   -0.08323900    0.59158200
Se    8.34862000   15.37253000   15.70859000      0.159207    0.04109900    0.08007000
Se   14.14193000   20.66060000    5.30079000     -0.419597    0.63317400    0.23976500
Se   15.20407000    1.62700000   16.27906000      0.079454   -0.19347400    1.15476900
Se   12.47242000    5.84828000    7.79443000     -0.300969    0.14053600   -0.84042300
Se   11.36305000    7.49255000   15.39783000     -0.081952    0.33379900   -0.02696600
Se   13.95666000   11.04004000    5.56694000      0.516248    0.79884100    0.82097100
Se   13.62989000   12.92232000   13.01495000     -0.438676    0.55632700    0.03770900
Se   10.17479000   15.98577000    4.87105000      0.063390    0.13828400    1.07611800
Se   12.66103000   20.26292000   19.23915000      0.682354   -0.62448900    0.27567900
Se   19.95108000    2.63354000    5.99292000      0.262687   -0.27998700    0.80982300
Se   18.82715000   22.55681000   16.48238000      0.466222    0.05105400   -0.26226800
Se   17.17781000    4.44955000    6.39829000     -0.645177    0.20427400   -0.75043200
Se   18.07232000    6.51033000   16.49179000     -0.375230    0.83631400   -0.77518600
Se   20.40051000   10.97069000    4.46997000     -0.297420   -0.57625100   -0.67391000
Se   16.83323000   12.96131000   13.12752000      0.977000    0.15770900    0.60078200
Se   18.28293000   19.22896000    4.76565000      0.426136    0.84819500   -0.40517400
Se   17.46197000   22.43516000   13.40818000     -0.100985   -0.22881300    0.20487500
Se    3.17307000    6.05481000    6.77475000     -0.138385    0.93185400   -0.09060900
Se    4.29818000    4.48179000   12.26047000      0.036813    0.05326600   -0.49836700
Se    1.72890000    8.14327000    3.67510000      0.059233    0.86893300   -0.47332400
Se    3.82304000    9.93244000   16.14435000      0.310233    0.85718800   -0.50287300
Se    6.59974000   12.04786000    6.63967000     -0.297935    0.18818400   -0.11355800
Se    4.47169000   18.08164000   17.67777000     -0.078550   -0.04323700    1.00052500
Se    2.41345000   22.05513000    6.19101000     -0.294758    0.31886900   -0.38550400
Se    6.02454000   21.98513000   15.06738000      0.188175   -0.19921800    0.27982400
Se   11.44462000    1.57506000    6.99169000     -0.380008    0.92876100    0.62665200
Se   11.75651000    4.23226000   17.34783000      0.483563    0.71318700   -0.78940100
Se   10.13966000   10.45267000    6.76985000      0.476628    0.15298800   -0.24765800
Se    7.06187000   10.82547000   14.07281000      0.795573   -0.02388400   -0.76483500
Se    8.96579000   15.51815000    9.08710000      0.119486   -0.41775900   -1.03615500
Se   10.86644000   17.97575000   16.26737000     -0.865684    0.16011800    0.64961900
Se    8.01716000   18.82146000    4.36874000      0.142543   -0.28689600   -0.55056500
Se   10.01321000   20.95276000   16.86299000      0.268182    0.70963300   -0.59586400
Se   13.57433000    3.28982000    5.21685000     -0.208455    0.99675500    0.35398400
Se   17.96196000    3.16692000   14.67699000      0.185054   -0.07063500    0.00629500
Se   15.84575000    7.94238000    7.24495000      0.990656   -0.19844300   -0.08772000
Se   16.26950000    8.69796000   14.09602000      0.466754    0.12662400    0.26202700
Se   17.28040000   11.96117000    7.09892000     -0.023232    0.29193700   -0.79292700
Se   15.79640000   18.72090000   16.16388000     -0.068496   -0.45209300   -0.07756600
Se   15.41193000    0.43271000    5.67541000     -0.052795   -0.26444200    0.02091800
Se   18.75553000    2.62144000   12.46444000     -0.116593    0.29473600    0.01580000
Se    0.28032000    4.46746000    7.31727000      0.383363    0.14912400   -0.39648900
Se   22.53779000    3.50423000   12.76933000      0.096275    0.52418300    0.06054600
Se   19.74750000   12.70487000    6.42936000      0.093197   -0.23118900    0.75536800
Se   20.26888000   13.04531000   16.53239000      0.701931    0.65983100    0.55095800
Se   22.27822000   13.91753000    6.21381000     -0.277693   -0.92683900    0.57390500
Se   19.53157000   18.56588000   14.89752000     -0.047744    0.45324600   -0.45328900
Se   21.78037000   19.30529000    7.40514000      0.249425    0.72913000    0.06553000
Se   22.22010000   20.07716000   17.61421000      0.153226   -0.67681900   -0.17032900
Se    3.30664000    3.01460000    5.51378000      0.631205   -0.84087100    0.18119800
Se    7.38076000    2.62938000   15.90918000      0.864959   -0.99348800   -0.15437900
Se    2.23426000    3.40583000    0.73694000      0.395640    0.18156900   -0.06006300
Se    2.38331000   10.36149000   11.14493000      0.206706   -0.54973800   -0.08689600
Se    0.86365000   11.82770000    3.42819000     -0.500050    0.44207800   -0.23706300
Se    2.41687000   15.58906000   14.40802000      0.717530   -0.12815300    0.15853500
Se    4.07272000   16.59152000    0.61308000      0.142599   -0.60274300   -0.32529800
Se    4.87320000   18.58815000   13.19545000      0.310489    0.66999200    0.23060600
Se   10.41992000    0.82947000    2.72703000     -0.998839    1.12004100    1.33025800
Se   10.88663000    1.68775000   14.31223000      0.388990    0.04279400    0.52870100
Se    8.97929000   10.39263000    3.33150000      0.085371   -0.62549800   -0.20154000
Se    6.85789000    8.86207000   17.64245000     -0.216045   -0.06006200   -0.65633500
Se   11.27564000   13.15750000    3.31172000      0.095027   -0.33765000   -0.49353700
Se    9.52738000   13.49490000   11.63677000     -0.272558   -0.04439600    0.27285800
Se    9.07671000   20.66931000    0.99739000     -0.249599    0.24608700    0.19450800
Se    9.52644000   18.63488000   14.22138000      0.016519   -0.03941500   -0.31255600
Se   18.61969000   22.34233000    6.82645000      0.595178   -0.35805700    0.89714000
Se   15.06452000    2.38219000   12.29359000      0.113147    0.37806400    0.74513500
Se   14.92069000    6.67092000    3.42061000     -0.248343   -1.31439900   -0.42417100
Se   15.09814000    6.33382000   16.17614000      0.399732   -0.09051500   -0.62368800
Se   14.94743000   12.68593000    2.03289000      0.887619   -0.22778200    0.75866200
Se   14.92257000   16.79353000   12.70320000     -0.187178   -0.25310000    0.03314900
Se   16.38633000   16.98353000    2.51427000     -0.778165    0.04231200   -0.17886000
Se   13.93611000   20.05364000   14.95721000      0.711127   -0.55558600    0.06517700
Se    0.00640000   22.67127000    4.84550000      0.287746   -0.07945600   -0.18101200
Se   21.98429000   22.90813000   13.60659000      0.036906    0.51207000    0.63907300
Se   19.32347000    2.82019000    3.52172000      0.702312   -0.42493700    1.37574900
Se   19.54711000    9.86715000   13.95686000     -0.123814    0.51582000    0.23509300
Se    2.73746000   11.18429000    5.82577000      0.337941   -0.08534700   -0.49081700
Se   21.61423000   15.05658000   15.51197000     -0.227955    0.74376400   -0.26413700
Se   22.21802000   18.80919000    2.55839000      0.146983   -0.28819000    0.34747500
Se   22.01640000   20.08290000   11.42049000     -0.292073   -0.71872100    0.32787700
Se   22.73789000    4.94847000    4.83581000      0.444588    0.07307800    0.34821100
Se   21.78479000    4.76845000   15.49673000     -1.492543   -1.06306600    0.22871000
Se   21.13461000    9.39899000    2.16039000     -0.716931    0.00070800    1.70559700
Se   22.90144000   12.26729000   13.19003000      0.208042   -1.16892400   -0.02859600
Se    2.32281000   14.28829000    1.14043000      0.095656   -0.31082500   -0.31388500
Se    2.64675000    1.38416000   12.81548000     -0.041959   -0.19016300    0.26230700
Se    4.17798000    0.00651000    2.85725000     -0.593203    0.09756600   -0.72634900
Se    6.42087000   19.48690000   15.07982000     -1.023715    0.04447600   -0.92904400
Se    8.80492000    4.87912000    8.19290000      0.235375   -0.20283000    0.26806500
Se    7.80169000    5.35789000   13.33065000      0.280624    0.05551900   -0.12709500
Se    5.60294000    6.26579000    4.48799000      0.037588   -0.28488200    0.15350700
Se    8.04010000   11.50017000   11.91557000     -0.465031   -0.24234000    0.63014900
Se    7.64291000   15.40259000    2.23805000     -0.089574    0.35967300    0.88023700
Se   12.12311000   15.44425000   13.13958000     -0.572000   -0.37960900    0.60520300
Se    7.25239000   22.40172000    7.66781000      0.401186    0.54364300   -0.76614600
Se    8.87108000   21.92890000   12.30009000     -0.452287   -0.05652700    0.44361500
Se   13.09048000    0.45840000    3.35857000     -0.178715    0.30284500    0.68214300
Se    9.31179000    2.71959000   12.83708000      0.062088   -0.46515600    0.09480400
Se   15.22830000    8.88811000    4.10873000     -1.016783    1.88008000    0.88045600
Se   10.77221000   10.91241000   13.39331000      0.458454    0.20561000   -0.22846800
Se   12.66915000   16.24799000    1.69487000      0.599415    0.49641500   -0.01668300
Se   12.47976000   18.14353000   14.68001000      1.161677   -0.59939300   -1.30838700
Se   12.17249000   19.97305000    3.95176000      0.016669   -0.50051900   -0.51208500
Se   13.46066000   22.90727000   14.63748000      0.651403    1.05593800    0.45562300
Se   19.46026000    3.08439000    1.11282000     -1.065140    0.27271500   -0.79207000
Se   17.18659000    7.16475000   12.43877000     -0.513835   -0.55409400    0.59349100
Se   19.03816000    8.15728000    4.66623000      0.129543   -0.57749400   -0.06329200
Se   20.63663000   13.45916000   12.61982000     -0.523418    0.08397800   -0.65890700
Se   22.22455000   15.70134000    3.31063000      0.522137   -0.55129700   -0.45144300
Se   18.58020000   14.84104000    9.10022000      0.157377   -0.15460300    0.85403900
Se   19.72874000   21.42217000    4.14304000     -0.155985   -1.16751900   -0.68799300
Se   18.13004000   21.92557000   10.96134000     -1.098745    0.17699200    0.15167700
