384
23.00800000 23.00800000 19.32000000
Ge    5.04683000    5.01898000   11.12896000      0.128912    0.56995400    0.54715200
Ge    4.99773000    5.52799000    2.00317000      1.830889   -0.03690800   -1.15900800
Ge    0.99695000   11.95210000    7.95939000      0.562819    0.56906300   -0.05249900
Ge    6.82959000   11.25286000   17.81672000     -0.395251    0.78709900   -0.27413500
Ge    4.31485000   15.03202000   10.09503000      0.750475   -0.94086500   -0.49734700
Ge    8.07989000   18.72845000    1.00947000      0.665022    0.55998500    0.28815800
Ge    9.15074000   20.46530000    9.53076000     -0.313494    0.72346500   -0.39790400
Ge    4.50559000    1.69945000    0.07281000      0.620675   -0.61824000    0.11520400
Ge    8.82295000    5.21402000   11.20481000      0.128447   -0.08668200   -0.29793200
Ge   11.82013000    5.10661000    0.55247000      0.282968    0.47900200   -0.15769400
Ge   10.83024000   11.16964000    9.04126000      0.486895    0.93768500    1.65212700
Ge   10.67386000   12.50030000   17.66572000     -0.257851   -0.29818700   -1.31351000
Ge   10.13179000   16.78302000    8.22488000      0.908564    0.72085800   -0.00883700
Ge   12.18732000   14.66675000    0.17697000      1.422367    0.59578500    0.31373500
Ge   10.56902000    1.55571000   10.37862000     -0.316491   -0.08300500    0.06049500
Ge   15.04996000   21.30145000    0.60038000      0.536436    0.82903500   -0.11345000
Ge   19.16075000    5.73547000   10.14623000      0.071881   -0.01307000   -0.65378300
Ge   18.80034000    8.97636000   16.07073000      0.196695   -0.62068600    0.17523900
Ge   21.17636000   14.13233000   10.30962000      0.201140    0.36998700    0.94661900
Ge   16.00558000   10.84235000   18.80799000      1.024478    0.70473300   -0.75157600
Ge   14.02320000   16.48054000    8.71240000      0.107115    1.02457700    0.67976900
Ge   17.85345000   15.60643000    1.35812000      0.197162    0.53752200   -0.45412700
Ge   18.16310000    1.11909000    9.27643000     -0.228416   -0.21652300   -0.07686300
Ge   18.15568000    2.35138000   19.22000000     -0.461330   -0.62553900   -0.28615000
Ge   22.91297000    5.51725000    9.73873000     -0.453471   -0.49032200   -0.02343200
Ge   19.98263000    4.15144000    1.13033000     -0.248018    0.24942900    0.14210700
Ge    0.38256000    9.75184000    9.34999000     -0.063686   -0.70147500    0.73506600
Ge    0.73951000   11.79660000   18.75632000      0.594021    0.26585700   -0.28769600
Ge   21.73949000   15.61119000    8.14151000      0.193598    1.09505900    0.18358000
Ge    2.16420000   16.56113000   17.87452000      1.561419   -1.61321600   -0.72767800
Ge   20.59996000   21.84926000    9.48638000      0.080430    0.04874500    0.43255000
Ge    1.07793000   22.08312000    0.48075000      1.173307   -0.56906600   -1.29579000
Ge    5.20752000    9.31149000    8.67864000     -0.176763   -1.07574100   -0.48041200
Ge    0.72496000    6.20555000   18.97278000     -0.306860    0.66416100   -0.13339400
Ge    1.00947000    8.82412000    5.12192000      0.466283   -1.11284100   -1.00115800
Ge    4.53755000   13.84999000   16.78662000     -0.310716   -1.11236100    0.00439100
Ge    4.44453000   18.33517000    2.95304000     -0.532274   -0.08303100    0.65155900
Ge    1.75397000   19.31590000   18.53452000      0.265444    0.50071500   -0.48954300
Ge    5.61441000   18.67229000   10.11342000     -0.391365    0.56749500   -0.35720900
Ge    4.01070000    0.38910000   16.73929000      0.283812   -0.51033500    0.71148700
Ge    9.04881000    3.72485000    7.62344000      0.403424    0.58059700   -0.93401800
Ge    7.65009000    5.89039000   17.14972000     -0.136365   -0.08042000    0.14353400
Ge    6.80093000   13.38693000    4.34859000      0.261867   -1.30200600    0.13616400
Ge    8.51935000    8.01717000    1.12730000     -0.302361   -0.04043400   -0.26361800
Ge    6.24053000   17.13886000    7.15445000      0.457209   -0.82692600    0.10608100
Ge    8.96179000   16.34041000   16.79321000      0.995720   -1.52505400    0.01884700
Ge   10.67574000   22.64814000    5.06937000      0.501891   -0.31485600    0.73761200
Ge   10.75677000   21.67187000   14.26227000      0.899570   -0.10946400   -0.04696300
Ge   13.10694000    6.46595000    8.42721000     -0.769575   -0.25751900   -0.75629200
Ge   13.37371000    6.34544000   16.12784000      2.177166   -0.69053700    1.58215900
Ge   13.63138000    9.90960000    7.54746000      0.480927   -0.15594900   -0.74739400
Ge   15.51820000   12.95691000   15.92467000     -0.036030   -0.18730900   -0.47560100
Ge   12.79604000   17.00353000    5.54660000      1.136012   -0.76454700   -0.70747500
Ge   13.83229000   17.92977000   18.71948000      0.394568    0.13489600    0.64875300
Ge   13.78327000   22.32984000    8.54992000     -0.248978    0.75100800   -0.11195200
Ge   15.57790000    1.60022000   14.47659000      1.280091   -0.14522100   -0.33733500
Ge   20.45721000    3.53307000    6.50694000     -0.780704    0.38382300   -0.54221100
Ge   20.20187000    5.71781000   16.86407000     -0.021372   -0.52452900   -0.62781400
Ge   17.67751000   10.96614000    7.23394000     -0.586834   -0.05978700   -1.01334700
Ge   20.01762000   13.49064000   17.50904000      1.198213   -1.40917500    1.50026100
Ge   18.35543000   16.24673000    5.77095000     -0.768896    0.02501200   -0.17997400
Ge   18.22791000   20.47384000   17.99506000      0.956992    0.52701800   -0.30018900
Ge   21.73800000    1.23391000    7.47784000      0.228434    0.28386900   -0.00714700
Ge   19.30906000   21.91510000    0.92966000     -1.751497   -1.15147800   -1.09962900
Ge    5.65451000    2.99356000    7.78893000     -0.346362   -0.10505600   -1.40504800
Ge    4.92189000    4.60470000   15.41292000     -0.268770   -0.92173900    0.39088500
Ge    2.99245000    7.03016000    3.89757000     -0.239113   -0.60704200    0.56722500
Ge    2.88856000   10.13354000   13.16575000      0.478442   -0.59521600    0.21020800
Ge    1.54482000   15.52059000    3.59259000     -0.125492    0.90895100    0.32620700
Ge    1.09731000   18.90451000   14.48225000     -0.399332    0.33533200   -0.02212200
Ge    2.16319000    1.23170000    8.26006000      0.882750    0.61058800    0.08549700
Ge    5.91161000   18.88923000   15.74010000     -0.592456   -0.16494400    0.03713100
Ge    9.09341000    3.30708000    3.08801000     -0.090519    0.53986700   -0.50843400
Ge    9.81122000    1.64529000   15.42388000     -0.730528   -1.24762900    0.76179600
Ge    8.82352000    9.81580000    5.35875000     -0.939813   -0.37350300   -0.43559400
Ge   10.18540000    9.97633000   14.85199000     -0.198838    0.66477700   -1.09641300
Ge   10.53744000   14.30029000    5.01077000     -0.477630   -0.86975900    0.22942600
Ge   12.80642000   12.17728000   13.49646000     -0.941204   -1.48362400    0.68963000
Ge    6.24912000   21.54564000    2.62714000      0.045280    0.32875900    0.17310300
Ge    8.95720000   18.58175000   15.58536000      0.343252    0.68846600   -0.53829300
Ge   13.68388000    1.39028000    6.44185000     -0.189969    0.19641800   -0.22112800
Ge   11.68865000    4.06181000   15.10964000      0.785983   -0.05349500    0.24679400
Ge   15.49618000    6.42066000    6.20831000      0.139170    0.41865000   -0.19720700
Ge   14.59758000    8.96174000   14.78015000      0.276063    0.48350300   -0.21456300
Ge   14.95888000   13.92122000    5.27614000      0.641906   -0.28343100   -0.02342200
Ge   14.46194000   16.35776000   14.65315000      0.286168    0.25429300   -0.48616700
Ge   11.78418000   18.08266000    3.19234000     -0.035452    0.53655500   -0.23985500
Ge   10.32431000   21.53958000   17.07267000     -0.734476    0.65172000   -0.21162500
Ge   18.06965000    4.72630000    3.66680000      0.434379    0.60535900    0.78801100
Ge   20.54220000    2.29761000   12.69374000      1.099595    0.08013200   -0.56124100
Ge   20.07858000    7.77528000    6.02139000      0.046088    0.54223300    0.12386300
Ge   18.82902000   11.53455000   13.83237000     -0.729963    0.63861000   -0.29846200
Ge   21.54756000   14.88508000    1.34752000     -1.048888    2.03113800    0.81507000
Ge   20.00627000   15.02869000   13.63024000     -0.299553   -0.11589900   -0.35432800
Ge   19.39929000   19.64339000    5.76213000     -0.357308   -0.79900500   -0.00359800
Ge   22.51921000   21.31273000   15.83366000     -0.094229   -1.62416600   -0.23720400
Ge    5.44681000    2.34713000    4.12886000     -0.161258    0.41317200   -0.22095000
Ge    5.37166000    1.52902000   14.24847000      0.603141    1.18798100   -1.38524800
Ge    5.92585000    9.07110000    4.12425000     -0.050694    1.24009600   -0.25276500
Ge    6.69488000    8.07510000   12.27141000     -0.150603    1.12912100    0.85214900
Ge    6.84919000   15.51164000    3.07163000      1.473596   -0.19536100    1.23261700
Ge    3.88663000   13.57838000   13.74561000     -0.136962    0.45084700   -0.59192700
Ge    5.41507000    0.39148000    6.44087000      0.186661   -0.38279600    0.19255000
Ge    7.32934000   19.56018000   12.35157000      0.186212   -0.45625500   -1.67449300
Ge   12.46572000    4.06444000    4.62513000     -0.532149   -0.97349600    0.10748000
Ge    7.72976000    1.39728000   13.07508000     -0.006485    0.89043200   -0.00144000
Ge   11.74491000    8.73635000    0.64421000     -0.781325    0.29878100   -0.10827300
Ge   11.63429000    6.14069000   12.96568000      0.200595    0.55943400   -0.29623700
Ge   10.00545000   13.97415000    1.49796000     -0.981785   -0.79006800    0.39380500
Ge    8.72228000   14.66034000   11.85103000     -0.003778   -0.56937200    0.01306500
Ge   11.78069000   20.46771000   18.92277000      0.591429   -0.25899700    0.39798100
Ge   12.01876000   19.94428000   10.67540000      0.800114    0.17866100    0.66348000
Ge   21.64826000    0.74101000   17.77425000     -0.818193   -0.11476800    1.23972700
Ge   14.35008000    5.50073000   11.95216000     -0.009588   -0.49846500    0.02293400
Ge   17.05397000    8.27993000    0.99624000      0.553395    0.04570900    0.01920800
Ge   14.82835000    9.41615000   10.15733000     -0.435257    0.36926600    0.11154900
Ge   16.70934000   11.82128000    2.93836000      1.218384   -0.06003900   -0.23410300
Ge   18.08247000   14.94738000    8.99684000      0.095058    0.46318200    0.12991100
Ge   17.08687000   18.23853000    1.88465000      0.773762   -0.61680700    1.64738600
Ge   16.50544000   20.97385000   11.99994000     -1.715181    0.51611300    0.59445100
Ge    0.15154000    1.93619000    1.47500000      0.603448    1.11344400    0.74448600
Ge    0.04332000    0.25906000   10.92479000      0.170810    0.52767900    0.87801200
Ge   21.91459000    7.51737000    2.59876000      0.203163   -0.48321000    1.03845000
Ge   22.17521000    9.96121000   12.32432000      0.190973   -1.13644300    0.31827000
Ge    0.03951000   12.81877000    4.15292000     -1.348522   -0.63339500   -0.96191200
Ge    1.19989000   15.79167000   10.31513000     -0.128070    1.34806400    0.13141300
Ge    0.53778000   20.77881000    4.51183000      1.327674    0.43534100   -0.57947300
Ge   20.86185000   17.73176000   12.02603000      0.412460   -0.70082000    0.79428600
Se    1.28965000    1.47872000   18.72842000     -0.351467   -0.61244100   -0.61739900
Se    1.61819000    3.53920000   11.59183000     -0.703147    0.39762200    0.38004600
Se    1.19589000    7.91642000    1.83749000     -0.407182   -0.19357100   -0.63326700
Se    0.59846000    7.92372000   11.26450000     -0.326015    0.86678200   -0.46763500
Se    3.05187000   11.63870000    0.91562000      0.010524    0.35149500   -0.97232700
Se    1.68268000   13.52877000    9.83852000      0.066453   -0.88821000   -0.08277300
Se    1.79948000   18.35402000    3.83905000      0.708251    0.36299700   -0.24780100
Se    2.12644000   18.68656000    9.48011000     -1.298846   -0.94402900   -0.13989500
Se    7.08524000    1.83206000    2.38211000     -0.294452   -0.41528700   -0.08324800
Se    7.69868000    1.12293000   10.62259000     -0.368627    0.10943200   -0.33663200
Se    7.37157000    5.11892000    1.30321000     -0.395235    0.32184800   -0.17919200
Se    9.53526000    7.29737000   12.30527000      0.224038   -0.00544700    0.12265300
Se    8.23450000   11.07386000    0.49538000     -0.357533   -0.74121500    0.80663100
Se    6.34392000   13.66231000   12.46240000     -0.452396   -0.27815500   -0.32278200
Se    5.17051000   19.83026000    0.97869000      0.176541    0.33808000    0.20943600
Se    9.48103000   18.72976000   11.26491000     -0.247594   -0.41461600    0.64037700
Se   14.00413000    2.01500000    0.46321000      0.489768    0.77580500    0.09596300
Se   13.00383000    1.11784000   10.57407000      0.625521   -0.39810400   -1.25360600
Se   10.46901000    6.97048000   18.49257000      0.212066   -0.17010900    1.37149200
Se    8.96188000    9.45901000    8.77965000      1.625300   -2.29696500   -0.36570200
Se   11.79032000   12.18153000    0.50832000     -0.115432    0.06586300    0.42166400
Se   13.15898000   11.81028000   10.70446000      0.550123   -0.11839500   -1.27320700
Se   15.33576000   15.92847000    2.06231000     -0.541367    0.15756900   -0.77096500
Se   12.00177000   17.27142000   10.03509000     -0.388581   -0.21527100   -0.17692800
Se   16.60748000    3.28357000    2.48541000     -0.172330   -0.85723600   -0.84939000
Se   15.98351000    3.50686000   11.33870000     -0.739702   -0.35458800    0.24842600
Se   15.86092000    7.00209000   18.24779000      1.365225   -0.37407000   -0.61108500
Se   20.25118000    5.78445000   12.40432000     -0.139438    1.07277000   -0.23517800
Se   18.54804000   10.08229000   19.31706000     -1.154503   -0.20073100    0.08636200
Se   16.18299000   15.56305000    7.37293000      0.456215   -0.57709500   -0.42997200
Se   20.21683000   16.92273000    0.35350000      0.407357   -1.38526500    0.49472800
Se   18.47126000   20.26168000   11.04990000      1.394197   -1.02256800   -0.42493200
Se    3.71789000    3.87675000    2.92373000     -0.212489   -0.86842100    0.60259200
Se    3.61382000    7.13036000   12.36123000      0.544316   -0.73654700   -0.09479300
Se    6.10506000    9.83942000    1.66030000      0.536156   -0.02970200    0.44197200
Se    4.99370000   12.46341000   10.74256000      0.137799    1.02174500    0.19575100
Se    4.42245000   15.86932000    4.04190000      0.788332   -0.00063200   -0.07387500
Se    3.21495000   15.78559000   12.06321000     -0.561051    0.63109900   -0.39822200
Se    2.79335000    0.97518000    1.93783000     -0.212169   -0.62567800    0.46273400
Se    6.44565000   21.14311000   10.52825000      0.955365   -0.84187000    0.05373400
Se   11.39801000    5.89023000    3.59139000      0.294460   -0.04400000   -0.28065300
Se    6.95371000    3.34782000    9.83238000      0.486541   -0.38844200    0.43018700
Se   10.17268000    9.93021000   17.83118000      0.086552    0.37826400   -0.20928900
Se    7.24904000   10.64570000    9.32050000     -1.200512    2.35580700    0.84062000
Se   10.79743000   17.91559000    0.99880000     -0.579404    0.03314600   -1.07036000
Se   11.58994000   14.70424000   11.46903000     -0.723601   -0.16964600   -1.22341800
Se   12.90360000   22.67014000    0.50940000      0.155165    0.00140300   -0.15602000
Se   10.85816000   22.22415000   11.64177000     -0.157297   -0.29327400    0.16226400
Se   14.46080000    4.45180000    1.40455000     -0.921286   -0.18367500    0.08032700
Se   16.69503000    7.48076000    9.66313000     -0.029561   -0.19239000    0.54655100
Se   14.84509000    9.54124000    1.23858000      0.128864   -0.46043000    0.24692100
Se   15.31132000   10.30233000   12.60347000      0.626963    0.01932400   -0.10960000
Se   18.47533000   13.97793000    3.02599000      0.212488   -0.14041700    0.11477300
Se   14.47304000   12.60086000    8.72135000      0.354636   -0.64752400    1.00417100
Se   16.94912000   22.62007000    1.85982000      0.294472   -0.02998400   -0.77667000
Se   14.69480000   20.72717000   10.10516000     -0.433345   -0.82505900    0.73802800
Se   20.90783000    0.65028000    1.58178000     -0.953102    1.43570400   -0.02317600
Se   21.75969000    2.87132000   10.59183000      0.065445    0.20208300   -0.83824600
Se   19.92480000    6.71014000    1.23548000     -0.115151    0.14483600   -0.58042900
Se   20.85585000   10.31624000   10.14822000      0.689449   -0.19733000    0.55417600
Se   20.59786000   12.87367000    0.73441000     -0.494866   -0.49364800   -0.83731800
Se   22.52633000   15.86387000   12.28472000      0.112030    0.46452600    0.28465000
Se   22.44421000   22.01149000    2.20180000      0.238880   -0.77371100    0.99590500
Se   20.05812000   20.21922000   15.73877000      0.435041   -0.30805000   -0.45081000
Se    4.09999000    5.00590000    8.49716000     -0.245901    1.25903400   -0.63628000
Se    1.32091000    5.95267000   16.47287000      0.159682   -0.91099700   -0.03518500
Se    3.67141000   11.20786000    8.24821000     -0.739879    0.51541900   -0.01970300
Se    3.43578000    9.82629000   18.57383000     -0.457485   -0.36241600   -0.20984900
Se    4.71672000   19.18738000    7.44613000     -0.365572    0.12087900    0.12464800
Se    0.49206000   17.56828000   16.58148000     -0.422559    0.53337500   -0.06028800
Se    2.50853000   21.86528000   11.78265000      0.613619    0.00107400   -0.25826200
Se    4.81473000   20.88863000   16.97742000     -0.224284    0.67826400    0.16390000
Se    6.98178000    3.80817000    5.61903000     -0.186764   -0.17265400    0.85602800
Se    6.18175000    3.29152000   17.56203000     -0.092932   -0.25722300   -1.00100700
Se    6.52986000   10.68604000    6.32285000      0.022520   -0.18245200   -0.48729500
Se    4.83398000    6.06739000   17.46704000      0.179985    0.79495500    0.17451700
Se    6.86123000   16.32102000    9.84378000     -1.026130    0.46402300   -0.12514500
Se    7.56809000   17.30404000   18.36865000     -1.040854   -0.11299500    0.88667700
Se    8.82842000   18.80219000    7.74218000     -0.704760   -0.25612600   -0.30522400
Se    6.18231000   22.34899000    0.17475000     -0.262637    0.31809700    0.30626300
Se   13.48186000    3.11392000    8.95752000      0.302452   -1.03831400    0.27458100
Se   12.98122000    4.25011000   17.56995000     -0.138898    0.44088900   -0.75854700
Se   12.58920000    8.03151000   10.14938000      0.202109   -0.05076600    0.18305500
Se   13.70469000   11.15240000   15.72547000     -0.541961    0.34148600    0.13287900
Se   13.16782000   14.82600000    7.21562000     -0.730709   -0.90202200   -0.47205000
Se   14.18106000   14.26324000   17.80410000      0.120814    0.67729700    0.06614900
Se   13.42871000   21.38248000    5.59343000     -0.277534    0.37415500    0.32843000
Se   16.58613000   22.05389000   17.02443000      0.000782   -0.08460800    0.51837400
Se   18.05955000    3.53257000    9.55053000      0.098778    0.05483800   -0.37899600
Se   20.01870000    3.08042000   17.49499000      0.030677    0.87027300   -0.13863600
Se   19.56283000    9.70674000    8.08214000     -0.005147   -0.92287800   -0.82022100
Se   16.66912000   10.23488000   15.92839000     -0.003183   -0.33101200   -0.08520600
Se   15.51426000   16.11286000   10.62377000      0.055263    0.20800900    0.11116700
Se   18.11082000   14.67950000   17.28992000     -0.941915    1.20274900   -0.78433100
Se   17.41036000   20.04106000    8.93422000     -0.136562   -0.70366900   -0.12422300
Se   19.67169000   19.85987000    2.41103000     -0.002466   -0.70456500   -0.89969700
Se    4.67244000    0.31530000    8.84450000     -0.184586    0.10981800   -0.57651300
Se    2.33865000    3.74097000   16.58396000     -0.000213    0.97971600   -0.31675900
Se    6.73716000    7.10188000   10.13217000      0.438602   -0.91891100   -0.70288200
Se    3.43385000    6.23493000    0.30463000      0.070032    0.15364100   -0.41645900
Se    4.09818000   15.65135000    7.60077000     -0.288820   -0.26092000    0.03276100
Se    5.37589000   13.45687000   18.91435000      0.756940   -0.39335300    0.15710800
Se    3.61000000   20.39050000    9.84275000     -0.458267    0.69195400    0.32533800
Se    0.97218000   16.57746000    0.53953000     -0.456995    1.14635400    0.58818100
Se    9.57336000   22.51678000    7.64023000      0.507467   -0.28337600    1.27442700
Se   10.09388000    3.53813000    0.43974000     -0.875304   -0.58340700    0.74353700
Se   11.29402000    3.93287000    9.33688000     -0.395344    1.11180700   -0.20444800
Se    6.27692000    8.45254000   18.24971000      0.579612    0.29630400   -0.02902300
Se   10.99036000   13.88959000    8.03927000      0.052346    0.00195400    0.22255200
Se    8.50123000   13.47672000   17.82763000     -0.264594   -0.07835100    0.14804800
Se   11.57795000   20.46509000    8.36049000      0.038265    0.32116100   -0.08704400
Se   11.45383000   14.97639000   17.23641000      0.274612   -0.05231000   -1.18777800
Se   15.78356000    1.04295000    7.78163000      0.613444   -0.63332400    0.95330800
Se   15.83847000    3.10403000   18.14373000      0.001484   -0.94216600   -0.36154600
Se   15.41103000    5.54592000    8.78245000      0.200622    0.45285800    0.76765700
Se   13.80581000    7.99031000   18.32333000     -0.888953   -0.10776500   -1.32022100
Se   16.87517000   11.22966000    9.42894000     -0.859206    1.18755500    1.04470400
Se   16.51750000   13.92046000   19.16855000     -0.059065   -0.57860400    0.12012800
Se   13.67858000   18.42115000    7.22462000      0.764792    0.83509100    0.54021200
Se   16.42698000   19.10003000   19.17080000     -0.669086   -0.53835500   -1.25064100
Se    0.17418000   21.75434000    8.92218000     -0.890854    0.31654400   -0.84119500
Se   22.47100000    0.62161000   15.61723000      0.589219    0.92808100   -1.62879600
Se   20.64233000    5.68020000    8.03209000      0.058894    0.31097100    0.81421700
Se   21.15375000    7.48752000   18.29493000      0.320262   -0.10852000    0.41777600
Se   22.37684000    9.75738000    6.51977000     -1.717849    0.11704000    0.38136300
Se   20.39150000   11.06057000   17.01465000     -0.462120   -0.21323600    0.46374600
Se   19.45797000   16.93998000    7.89429000      0.790435   -0.34973000    0.29281300
Se   20.03925000   16.21155000   16.20356000     -0.298294   -0.15670900    0.26217500
Se    3.33169000    3.04027000   10.08964000      0.031632   -1.01833100    0.63154300
Se    3.24553000    0.40046000   14.32305000     -0.689199   -0.54724500    0.02446300
Se    1.14229000    7.97203000    7.40767000      0.660962   -0.10780400    0.78873900
Se    1.28898000    9.64881000   17.44621000      0.428648    0.24765700    0.31471900
Se    0.61282000   16.50612000    6.77615000     -0.430515    1.27048000    0.62778500
Se    2.13786000   13.65747000   17.15721000     -0.667951    0.48062700    0.03623500
Se    0.19614000   19.13415000    7.53974000      0.682258   -1.10594300   -0.11801300
Se    2.54993000   20.63530000   16.27290000     -1.106778   -0.31845400    0.49625000
Se    8.19783000    0.15030000    5.92893000     -1.242954    0.56251500   -0.87606800
Se   10.34058000    0.78131000   18.05532000     -0.203518   -0.68957700   -1.08855600
Se    7.72519000    7.15953000    6.05370000     -0.676823    0.97935400   -0.01649100
Se    6.49624000    6.86293000   14.97408000     -0.147330   -0.36486100    0.34234900
Se    7.40020000   14.28278000    6.50593000      0.155849    0.20607700   -0.14965400
Se    8.80675000   16.50670000   13.60121000      0.112149   -0.16476400   -0.16609100
Se    6.64385000   18.91713000    4.52757000     -0.555782   -0.01558300   -0.82199200
Se    6.85649000   16.21525000   15.28732000      0.844663   -0.86584300   -0.58900500
Se   15.09186000   21.85797000    4.02221000      0.062685    0.28162000    0.00451100
Se   14.32230000    1.28717000   16.36993000     -0.244042   -0.28460600    0.92822100
Se   13.28119000    7.63858000    5.83850000     -0.104834   -0.07665300    1.04223000
Se   11.31572000    6.89645000   15.37065000     -1.535870    0.61005600   -0.68407800
Se   13.39240000   11.80163000    5.64036000     -0.430079   -0.34917900    0.45216600
Se   14.57725000   13.98288000   13.30431000      0.756074    0.73985200    0.93411200
Se   10.43030000   16.93025000    5.69812000     -1.502349   -0.07664500    0.49750700
Se   13.60828000   19.88974000   17.03229000     -0.302363    0.19149600    0.61978000
Se   19.89127000    1.46550000    4.06961000     -0.809702   -0.17253600    0.88928500
Se   19.00170000    0.29045000   17.27490000     -0.050812    0.37985600    0.56547200
Se   17.85557000    3.88887000    6.00287000      0.736943    0.28369200    0.12038300
Se   17.96513000    6.38325000   16.14333000      0.589433    0.33762000    0.20661700
Se   20.26945000   10.31599000    4.88405000      0.104971   -0.40865500   -0.82501000
Se   17.68811000   13.94638000   13.06946000     -0.126486   -1.06334000    0.47922400
Se   17.08478000   18.41351000    5.98942000      0.813616    0.13807600   -0.41502000
Se   17.51654000   22.79345000   14.39869000     -0.502063   -0.35436700   -0.02523500
Se    4.18094000    7.02986000    7.01945000     -0.078261   -0.11711800    0.25583800
Se    3.42732000    4.68574000   13.31502000     -0.502759    0.66968600   -0.41711900
Se    3.38097000    9.40979000    4.33683000      0.842760    0.61124700    0.20024300
Se    5.32294000   12.22379000   15.17459000      0.350249   -0.78679900    0.91073900
Se    5.11655000   13.13442000    7.39929000      0.602399    0.62159900   -0.85969200
Se    4.21547000   17.78262000   18.38560000     -0.734669    0.13369900   -0.54073500
Se    1.73265000   22.40625000    6.46431000      0.136068   -0.40680600   -0.53295800
Se    5.33573000   22.06177000   13.62489000     -0.066011    0.30407800    0.54464600
Se   10.81014000    2.69570000    6.08152000      0.430123    0.26069300   -0.25066700
Se    9.55685000    3.90324000   16.17035000     -0.581938    0.43005200    0.09753700
Se   10.72444000   10.47910000    6.78264000      0.513523   -0.32744700   -1.38113000
Se   10.48064000   12.59454000   14.75600000      0.147516   -0.77214600    0.45223700
Se    8.82511000   15.00296000    9.25528000     -0.058364   -0.75518700    0.27025300
Se   11.68831000   18.37411000   16.13830000      0.341845   -0.31555400    1.47816300
Se   10.03192000   20.30336000    4.23488000     -0.273294   -0.05842600   -0.53265100
Se    7.75958000   20.37049000   16.93263000      1.564333    1.02229300    1.28197100
Se   14.64642000    3.82423000    5.80669000     -0.562337    0.60076600   -0.29454200
Se   17.72067000    2.83278000   14.99710000     -0.288510   -0.02139100   -0.12077000
Se   15.99249000    9.17927000    6.67144000      0.076025   -0.09573100   -0.17795000
Se   17.67037000    9.83993000   12.11629000      0.210110    0.45752700    0.42388900
Se   17.39680000   12.92966000    5.20319000     -0.078875   -0.32038400    0.47741800
Se   16.52007000   18.20140000   16.09486000     -0.122089    0.18482500   -0.32164400
Se   15.51805000    1.30349000    4.44570000      0.192565   -1.04609900   -0.07203800
Se   18.62120000    3.73687000   12.89358000     -0.825359    0.17710600    0.51568800
Se    0.59233000    3.74766000    7.67275000     -0.843553   -0.11354500   -0.14854700
Se   22.22038000    3.60705000   13.82237000      0.910014   -0.62522200    0.99589100
Se   19.70526000   13.04706000    8.55047000     -0.169645    0.19604300   -0.65614900
Se   22.05438000   11.72333000   15.61693000      1.314880    0.00581300   -0.27309700
Se   21.86112000   13.52251000    6.98632000     -0.719915   -0.92732500   -0.21861500
Se   21.36216000   18.17570000   14.57433000     -0.522536    0.82404500   -0.57668700
Se   18.66228000   21.26195000    7.40648000      0.591596    0.88744100    0.22047700
Se   22.00956000   21.06632000   18.22823000      0.613190    0.19590600    0.67587700
Se    3.29293000    3.10375000    6.62927000      0.187170   -0.81924100   -0.21716700
Se    6.49631000    1.02543000   16.28532000      0.459639    0.08179100    1.51623900
Se   22.34378000    4.33233000    0.58437000      0.861505   -0.60841500    0.44052800
Se    4.59417000    9.72274000   11.22451000     -0.167606   -0.57108900    0.80275600
Se    2.33022000   11.86220000    3.12485000     -0.513848    0.50583500    0.73095200
Se    4.38061000   15.74109000   15.36512000     -1.341269   -0.12264700    0.28614300
Se    5.16733000   15.85117000    1.61592000     -1.894666    0.38115700   -1.33409200
Se    5.70934000   17.72136000   12.87243000      0.407185   -0.18626500   -1.01695700
Se   10.52421000    1.04294000    3.04254000     -0.210764   -0.12195000   -1.17917700
Se   11.82378000    1.50697000   13.96274000      0.110028    0.26665700    0.21317300
Se   10.35091000    8.94515000    2.72111000     -0.089894   -0.41187200   -0.21082800
Se    7.99293000    8.62357000   16.47162000     -0.469302   -0.07065300    0.14397500
Se    9.30362000   12.41762000    3.47300000     -0.501816    0.70164800    0.36356800
Se   10.07981000   12.40126000   11.56004000     -0.855455   -0.17492100    0.34251100
Se    8.86731000   21.39903000    2.42645000      0.159657   -0.47005900   -0.32332100
Se   11.16616000   18.80022000   13.96051000     -0.175912    1.08134000   -1.14731100
Se   17.90813000    0.51970000    5.63946000      0.427016    1.06876600   -0.44304200
Se   14.16046000    2.54401000   12.82529000      0.418736    0.45564100    0.00998300
Se   15.94689000    6.47199000    3.62760000      0.865062    0.14341500    0.19282100
Se   15.47299000    5.57177000   14.88880000     -1.339594    0.46534000   -0.61494100
Se   14.51227000   13.02539000    2.72575000      0.168535    2.01519400   -1.20237800
Se   16.95493000   16.30316000   14.75097000      0.297294   -0.13214200   -0.03478600
Se   15.46385000   16.22376000    4.33808000      0.142977    0.40444500    0.68138000
Se   17.08862000   20.12540000   14.39967000     -0.146533    0.31430600   -0.37199200
Se   22.94006000    0.46581000    5.29696000     -0.583743    0.39542200    0.48824500
Se   20.83031000   22.95010000   12.53440000     -0.094402   -0.00384500   -0.19859200
Se   21.40440000    5.41019000    4.76920000     -0.108981   -0.20877000   -0.00626100
Se   21.61305000    8.74872000   14.52872000     -0.199172    0.20510000   -0.43487600
Se    1.38380000   13.97203000    5.70684000      1.098441   -0.08824200    1.33923400
Se   21.92696000   14.39030000   16.46355000     -0.065330    0.25897600   -0.58818700
Se   21.89743000   19.27239000    5.15473000     -0.991654   -1.24520000    0.78220700
Se   21.18005000   19.37116000   10.46054000      0.816127    0.77563000   -1.04427900
Se    0.57805000    4.65970000    5.38484000      0.278931   -0.16732400    0.23947700
Se   21.81961000    6.04167000   14.30479000     -0.091805    0.03127100    0.47480500
Se   21.15227000    9.79961000    2.58437000     -0.266872    1.01271800    0.71855100
Se    1.08652000   11.51669000   12.43856000     -0.052310    0.26843200   -0.15635800
Se    0.90716000   14.33274000    1.36888000      1.089723   -1.20629900   -0.54077600
Se    0.40062000   21.01399000   12.10028000      0.132841   -0.92225800    0.28276900
Se    3.54015000    0.49244000    4.28663000      0.431452    0.36032500   -0.15169200
Se    3.96829000   18.67883000   14.06248000     -0.600973    0.73885100    0.20922800
Se    9.61672000    6.22016000    6.73741000      1.296862   -1.09205200    0.55578700
Se    7.37705000    4.06307000   12.91746000     -0.227178   -0.25965700    0.21484800
Se    5.64823000    6.64160000    4.03465000     -0.303762   -0.08339700    0.34115600
Se    8.29125000   10.47170000   12.51221000      0.202867   -0.16864500    0.35898100
Se    8.30032000   17.43545000    3.31157000      0.059589   -0.35933400   -0.58692200
Se   12.17413000   15.05015000   13.59434000      0.172451    0.39617000    0.84164100
Se    6.01035000   20.67357000    6.04885000     -0.157569    0.78673400    1.11719100
Se    8.03779000   20.97339000   13.93069000     -0.219103    1.05913900    0.75720900
Se   12.76040000    1.83535000    3.10961000      0.177371    0.78555400    0.35818100
Se   11.32455000    3.56284000   12.03896000     -0.897456   -0.50585200    0.11021900
Se   14.31374000   10.89738000    3.45616000     -1.147255   -2.00558800    1.67832900
Se   11.81344000    9.57820000   12.95716000      0.521436    0.16822600    0.36267900
Se   11.71030000   14.99447000    2.97260000      0.733464    0.74866200    0.73401100
Se   14.63369000   17.58921000   12.23469000     -0.104036    0.09368200    0.17050000
Se   13.54472000   19.51084000    1.56206000     -0.100101   -0.36501300    0.08797300
Se   13.26916000   22.03724000   14.82008000     -0.221551    0.46294600   -0.02208000
Se   17.03840000    5.51734000    0.98884000     -0.107541   -0.30246800   -0.52379700
Se   16.19693000    6.98505000   12.23097000      0.651605    0.12390700   -0.01255100
Se   17.65976000    8.14466000    3.58519000     -0.146902    0.34314700    0.25814700
Se   20.94946000   12.69807000   12.95925000     -0.052349   -0.18431100   -0.09517700
Se   22.01353000   15.49699000    3.86969000     -0.656132   -0.38336400   -0.76765200
Se   19.14867000   16.24758000   11.17915000     -0.019704   -0.61953000    0.49635300
Se   18.70946000   21.18158000    4.08288000     -0.523309    0.70878800    0.18527800
Se   17.22950000    0.31315000   11.87090000     -0.302143    0.69903600   -0.21271100
