384
23.00800000 23.00800000 19.32000000
Ge    5.03283000    5.41977000   10.70932000      0.729847   -1.13921300   -0.89334400
Ge    3.73757000    8.25441000    2.27269000      0.843349    1.08671400   -0.21933900
Ge    2.14028000    9.72502000    8.27122000     -0.263488   -0.35994900    0.28133900
Ge    5.86418000   11.61577000   18.24901000      0.641486   -0.00286600   -0.88590900
Ge    4.58782000   15.19529000    9.70029000      0.028577    0.65490500   -0.94209300
Ge    7.60628000   18.78790000    2.12168000     -0.814143    0.07108100   -0.55214600
Ge    6.82874000   20.29787000    8.24158000     -1.204564   -0.84986600    0.74207600
Ge    5.48603000    3.35009000   19.31430000     -0.216856   -1.28411900    2.02785600
Ge    8.73490000    5.99901000   11.04884000     -0.388372   -0.37030300    0.27307700
Ge   10.13432000    7.37783000    2.29020000      0.420975    0.08396500    0.36373800
Ge   12.63677000   13.65684000   10.03657000      0.341502   -0.49306300    0.74475700
Ge   11.73494000   11.60385000   17.56730000      0.271590    0.73295900   -0.23448200
Ge    9.97560000   17.29701000    7.46721000     -0.214233    1.25609600   -0.85324100
Ge   14.43485000   17.81072000   18.83868000     -0.500067    0.35063400    1.30641500
Ge   11.00289000    3.37531000    9.72908000      0.173295   -0.78183500    0.77387100
Ge   15.73839000   22.27392000    0.01070000     -0.016731   -0.09841600    0.27308500
Ge   18.65580000    5.24632000   10.60958000      1.599635   -0.25335700    0.27361700
Ge   18.01216000    8.18846000   18.15617000     -0.323903    0.39443100   -0.36273900
Ge   21.06470000   14.59685000    9.70804000     -0.945288   -1.51387300   -0.06156800
Ge   16.04266000   10.78713000   19.04873000     -0.448736   -0.06960400    0.22617700
Ge   13.81988000   16.81393000    7.38405000      0.695929   -0.28504300   -1.95216600
Ge   19.73303000   14.40273000    0.07821000     -0.504127    0.47418100    0.63143900
Ge   19.61483000    0.77605000    9.88952000      0.267066   -1.29550900    0.17749800
Ge   17.62701000    2.22047000   17.49589000      0.308827    0.50489200    0.60637000
Ge    0.12577000    8.40277000   10.01488000      0.662035    0.10073100    0.14682400
Ge   21.94450000    1.74783000    2.31094000      0.409774    0.63714600   -0.28320800
Ge    0.25571000   12.41612000   11.45759000     -0.348014   -1.07773100    0.24123700
Ge   22.32666000   11.25125000    1.12853000      0.999241    0.08255600   -0.43218800
Ge   22.47994000   16.14728000    7.98280000      1.040958    0.03613700    0.47102400
Ge    0.70361000   14.74234000   16.60412000     -1.031253   -0.26520000    0.74896400
Ge   21.44310000   21.64974000    8.75342000     -0.266026   -0.03559800   -0.62452900
Ge    3.61492000   20.92205000    0.82490000      0.202060    0.32669400   -0.54151600
Ge    6.05172000    8.28744000    8.19438000      0.436801    0.21130000    0.22376100
Ge    1.76258000    6.90137000   17.51743000     -0.626077   -0.45440000    0.37344600
Ge   22.59180000    7.72220000    5.01851000     -0.247250   -0.31730800    0.84837500
Ge    3.09696000   12.17161000   15.73613000      1.038782   -0.35469800   -0.27819700
Ge    6.76603000   15.19733000    4.84438000     -0.532496    0.38084100    1.47639100
Ge    2.28042000   19.22923000   17.91488000      0.638421    1.00327400   -0.03442200
Ge    4.13976000   18.78596000    9.51379000      0.160788    0.36572700    0.67380500
Ge    2.12400000   22.65225000   15.35135000      0.577784    0.95269800    0.49846400
Ge    8.77114000    2.17978000    7.46880000     -1.298271   -0.16041200    0.63983900
Ge    8.54485000    3.66322000   17.79351000     -0.716189   -0.43924200   -0.10693700
Ge    7.25400000   13.24616000    2.80905000      0.176777   -2.45017700   -0.22933700
Ge    6.93797000    9.22065000    1.66903000      0.085186   -0.25940800    0.56845000
Ge    5.57703000   17.10768000    7.05426000     -0.104289   -0.58319100   -0.94162100
Ge   10.33662000   14.46205000   18.66581000      0.281986   -0.83503200    0.33270400
Ge   11.00073000   22.64650000    6.14554000     -0.189920   -0.38589300    0.05625500
Ge   10.18254000   22.85399000   14.21091000      0.457460   -0.92643700    1.19157500
Ge   13.44629000    5.66198000   10.32573000     -1.579795    0.88658400    0.87359100
Ge   13.63443000    6.93306000   18.58980000     -1.288900    0.52738800   -0.97195100
Ge   13.42809000    8.20067000    8.16734000     -0.287689    0.42106700   -0.82126000
Ge   15.02619000   13.36542000   15.34739000     -0.316564   -0.16183800   -0.60415500
Ge   13.99531000   17.42129000    3.88181000     -0.219689   -0.70503500   -0.57621000
Ge   14.33547000   19.63255000    2.74721000     -0.800950    1.13155600   -0.92194700
Ge   15.31390000   21.61257000    9.92858000      0.761836    0.21073200   -0.73714700
Ge   16.09361000    1.21571000   14.53843000      0.538170    0.48618100   -1.21216500
Ge   20.75616000    3.53935000    8.18461000     -0.148565   -0.32731200   -0.46406500
Ge   21.46222000    5.03883000   17.65528000     -0.163157    0.15073300   -0.13910000
Ge   16.31816000   10.15567000    8.63111000     -0.822365    0.57548100    1.61039500
Ge   18.23121000   14.62679000   17.12628000     -0.131235   -0.05774100   -0.11021000
Ge   18.39388000   16.58770000    3.94042000      0.811100   -0.16709500   -0.45190200
Ge   20.77217000   18.10970000   17.35871000      0.176947   -0.42652100   -0.34984200
Ge   22.18431000    2.64124000    4.85090000     -0.690254   -0.20766600   -0.04410000
Ge   19.78647000    0.69186000   19.29323000     -0.391807   -0.42396000   -0.60606700
Ge    5.57548000    3.42822000    7.79933000     -0.238961    0.02219700   -0.47364700
Ge    1.79686000    4.93188000   14.42157000     -0.281808    0.78995400    0.32810000
Ge    2.35754000    6.23073000    3.12693000     -0.825351   -0.59253900    0.54668900
Ge    1.31517000    9.58781000   13.79626000     -0.561765   -0.05792800   -0.55946800
Ge    2.16526000   14.02397000    2.99711000     -0.441618    0.62117300    0.71773600
Ge    0.57626000   17.68234000   12.40521000      0.575371   -0.19025000    0.08841600
Ge    1.07434000    2.10673000    6.55197000      0.636332    0.75869100    0.74457000
Ge    4.97843000   15.61087000   15.40583000     -0.040169    0.25940300   -0.27797400
Ge    9.32661000    3.18858000    2.76589000     -0.821243    0.31740100    0.41666700
Ge   10.67673000    2.29812000   17.21049000      0.208316   -0.85578900    0.00729700
Ge    9.32044000    8.96961000    5.46442000      0.111671    0.14261200    0.00905700
Ge    9.61262000    8.91004000   14.15162000     -0.615389   -0.73823500   -0.12906100
Ge   11.57022000   13.97575000    5.50090000     -0.084897    0.00064100   -0.51767000
Ge   10.07193000   13.80909000   14.07325000      0.104041   -0.15452200    0.15377900
Ge    6.87788000   22.23743000    1.66605000     -0.185985   -0.04095700   -0.02336500
Ge    8.47196000   18.09504000   17.81230000      0.064294   -0.10082100    0.03888300
Ge   14.23141000    2.50517000    6.86339000      0.046197   -0.39030100   -0.39509800
Ge    9.88563000    5.41032000   16.23123000      0.364695    0.56029800   -0.62168900
Ge   14.53162000    6.12002000    5.61956000     -0.398544   -0.96699900    0.82757100
Ge   13.43725000    9.81265000   14.10617000     -0.498766   -0.31522500   -0.12896800
Ge   15.78133000   13.13200000    5.30893000      0.205085    0.63433600    0.28045900
Ge   16.30212000   15.69828000   14.95777000      0.555480   -0.35462400   -0.96205900
Ge   10.07053000   18.07220000    2.99680000      0.388191   -0.16394900    0.66306000
Ge   12.86531000   21.29461000   16.50379000     -1.254697   -0.77838500    0.68032900
Ge   17.50715000    4.91943000    3.57379000     -0.017159   -0.13849200    0.78016100
Ge   20.81772000    1.74483000   12.30326000      0.309404    0.46219700   -0.19845300
Ge   18.39316000    8.63777000    6.64205000      0.467930   -0.36447900    0.33611600
Ge   18.41227000   11.32631000   15.58900000     -2.803085   -2.11811600   -1.86673700
Ge    1.12500000   16.23329000    0.57904000      0.198209    0.03215500    0.32246400
Ge   18.22855000   14.77363000   12.53272000     -0.285008   -0.45328300    0.36280800
Ge   22.72320000   20.42227000    4.46908000     -0.320458   -0.26069300    0.11554500
Ge   22.38335000   19.94853000   15.23065000      1.251362   -0.07260500    0.84702200
Ge    6.42239000    2.33324000    3.76459000     -0.608702    0.19051600    0.36495800
Ge    4.55330000    4.39393000   15.96400000      1.753228    0.32028000   -0.57019600
Ge    3.89411000    8.88606000    5.06347000      0.225135    1.58275000   -1.00119300
Ge    4.29664000    8.23676000   13.36246000      0.084904    0.00099100    0.52598700
Ge    4.55388000   14.14274000    0.66556000      1.106624   -0.44082400    0.20390800
Ge    2.56724000   12.87529000   13.13731000      1.836085    0.42314300    0.77718200
Ge    4.24778000   22.89866000    6.15084000      1.047760    0.82567000   -0.92017700
Ge    7.65730000   20.17286000   12.01068000     -0.844181    0.51120000   -0.25862700
Ge   10.98254000    4.41226000    6.11734000      0.473930    0.14733100   -0.08883500
Ge    7.47240000    1.13232000   12.91853000      0.422384   -0.19956400    0.49781600
Ge   12.45005000   10.15903000    4.37217000     -0.846418    0.53572900    0.38900400
Ge   14.02111000    7.12207000   13.83623000      0.198350    0.68710600    0.17682600
Ge   12.46330000   14.38270000    1.12248000     -0.421759    0.02859100   -0.31375400
Ge    9.23173000   16.29478000   10.89515000      0.228904   -1.30284900    0.69459800
Ge   11.50432000   22.07839000    1.00284000      0.003155   -0.15568300   -0.49082400
Ge   11.36154000   19.37579000   11.90596000      1.296824   -1.90634500    0.11701300
Ge   22.63960000   22.84268000   18.26027000     -0.543906    0.68649300   -0.33478900
Ge   15.61746000    4.43433000   13.54307000      0.076826   -0.39500200   -0.80462900
Ge   17.05271000    8.55661000    2.42191000      3.118504   -1.38050100   -1.76883300
Ge   16.80941000    6.94127000    9.96096000     -0.964908    0.28356900   -0.03044300
Ge   18.00533000   12.08961000    3.77488000     -0.175295   -0.07379600   -0.79784800
Ge   19.46381000   15.08553000    7.01478000     -1.650854   -0.83988600   -0.02481600
Ge   17.26739000   19.30554000    2.82677000     -1.097878   -0.07172300    0.52965700
Ge   16.27504000   19.13666000   12.36900000     -1.592738    0.79673500    0.94282900
Ge    1.29048000    0.10986000    1.88076000      0.419213   -0.26040400    0.40246000
Ge   22.80426000   22.32608000   11.04713000     -0.521239    0.37446000    0.33795500
Ge   20.13672000    5.15724000    4.40963000     -0.378592    0.40271200   -0.38300800
Ge   20.31663000   10.95232000   11.67925000     -0.115043    0.00312800    0.29449300
Ge   21.76875000   13.52733000    4.09932000     -0.132203   -0.08960500   -0.33589200
Ge    0.83189000   18.56273000    8.42966000      0.491711   -0.83743700    0.59513300
Ge    2.73700000   19.97788000    4.07559000      0.267188    0.50645100   -0.17005000
Ge   20.26284000   18.60645000   12.30416000     -0.149335   -0.67341900   -0.25384000
Se    1.99885000   22.75349000   18.33000000      0.459689   -0.03516400   -0.04296100
Se    0.95982000    2.46515000   11.79116000      0.648523   -0.48816400   -0.04861700
Se    0.02272000    4.86508000    2.12071000      1.022891    0.00165000   -0.19947300
Se   22.53033000    8.22431000   12.39247000      0.280330    0.15367900   -0.32275600
Se    4.03598000   10.81708000    0.22566000     -0.532999   -0.36084700    1.05182600
Se    1.61152000   14.33192000   11.47180000     -0.201662    0.51721000   -0.18065700
Se    3.09849000   17.92322000    1.13955000     -0.684366   -0.58931000    0.61892100
Se    1.25917000   21.04413000    9.71472000      1.347808   -0.07862900   -0.32126200
Se    7.60279000    2.28042000    1.02361000      0.248204   -0.45421800   -0.05548000
Se    5.42859000    1.95738000   11.79512000     -0.069559    0.48748400   -0.43218400
Se    7.62426000    7.38433000    3.46008000     -0.485932   -0.00520400    0.00009900
Se   10.17016000    8.01562000   11.48123000      0.050188   -0.12419900    1.00572200
Se    8.31111000   12.27014000    0.56011000     -0.303671    0.36130700    0.29151700
Se    5.02545000   13.78779000   12.63746000     -0.150697   -0.19537700    0.92714100
Se    5.22600000   19.94254000    2.58297000      1.327105   -0.08118200   -0.12296200
Se    9.49972000   18.55705000   10.41531000     -0.315098    1.35970900   -0.55650700
Se   13.91115000    3.82169000    2.16205000     -0.231761    1.02440300   -0.91557500
Se   12.02189000   22.91630000   11.29683000      0.332362    0.45912000   -0.75377800
Se    8.42478000    8.65321000   18.97241000      0.848526   -0.29387300   -0.54432500
Se   10.19413000    9.28760000    9.56322000     -0.272169    0.62222300   -0.93932300
Se   13.55592000   12.50710000   19.11318000      0.130914   -0.15693700    0.28216300
Se   13.37417000   11.20403000    8.63705000      0.499833   -0.15197600   -0.10704500
Se   16.01189000   14.57801000    0.95296000     -0.219357    0.15421900    0.52328900
Se   12.12457000   18.13473000    8.09516000     -0.764208    0.67015800    0.73980200
Se   16.03741000    3.00329000    2.88693000      0.733616    0.06650000   -0.02570300
Se   13.93111000    0.76481000   10.21044000      0.075606    0.13926500    0.00161700
Se   18.55974000    4.84024000   17.87812000      1.124177   -2.00673700    2.67262300
Se   21.02492000    8.39018000    8.79224000     -0.371403    0.07092100   -0.00063800
Se   18.07711000   10.52687000    1.38132000      0.544046    0.40932700   -0.07742700
Se   17.25104000   15.73131000    5.86188000      0.223310   -0.45900800    0.77664400
Se   20.26538000   17.24546000    0.35257000      0.090785   -0.65939100    0.74868200
Se   18.01279000   18.28186000   11.03733000      1.545611   -0.64366400   -0.52998500
Se    5.10495000    4.30454000    2.42754000      0.258611   -0.30432800    0.35057800
Se    2.61368000    6.66788000   12.63529000     -0.130057   -0.03674200   -1.43014000
Se    4.91919000   10.63245000    2.87806000     -0.697175   -0.61167500   -1.01046300
Se    5.93982000   13.47102000   10.47258000     -0.291105   -0.74121200    0.62297800
Se    4.79648000   13.80536000    3.40428000      0.006778    0.11467100    0.03137300
Se    3.24370000   16.78702000   10.95912000     -0.355328   -0.08461400   -0.11837500
Se    4.92373000    1.58982000   17.76540000     -0.148167   -0.92835400    0.14200200
Se    5.95701000   21.54088000   10.42269000      0.982777   -0.91479500   -0.24115900
Se   11.42149000    7.68796000    4.61496000     -0.062305   -0.33911200   -0.03698200
Se    6.89623000    3.39435000   10.27473000     -0.679354    0.39818100    0.72767800
Se    9.81497000   11.54799000   15.56421000     -0.408584   -0.33713100    1.06116800
Se    8.08217000   10.16848000    8.85026000     -0.206531   -0.52649400    0.21516100
Se    9.58866000   16.44013000    0.20677000     -0.670203    1.42117700   -0.38583500
Se   11.91350000   16.16243000   11.10956000     -0.176516    0.05766500   -1.83295800
Se   14.39285000    0.95514000    1.93580000      0.551295   -0.49994900   -0.86508100
Se   12.62587000   21.70474000   13.77770000      0.382380    0.10833700    0.16122000
Se   12.07930000    8.67437000    1.01052000     -0.225981    0.34568300   -0.01807800
Se   19.64911000    6.80590000   12.61372000      0.782163    0.22199500   -0.58736600
Se   15.77511000    7.92465000    0.10509000      0.541044    0.68709600    0.04933200
Se   13.98043000   10.97835000   12.04377000      0.125725    0.55937500   -0.35293000
Se   19.29896000   14.05865000    3.02980000      0.128113    0.33985200   -0.48258800
Se   14.92069000   13.93716000    8.87900000     -0.551066   -1.76266400   -0.23336400
Se   17.53273000    1.15737000    0.68720000     -0.546206    0.05376400    0.02699500
Se   14.44367000   19.47114000   10.56257000     -0.031929   -0.10130700    0.61022700
Se   21.00138000   22.61815000    1.80047000     -0.128147   -1.00194400    0.09288800
Se   21.48254000    4.79202000   10.30455000     -0.194616    0.72352900   -0.08833900
Se   20.84096000    5.67750000    1.97660000     -0.357348    0.18387300    0.82498000
Se   22.02274000   12.36861000    9.36350000      0.117865   -0.60228300    0.10258600
Se   21.97596000   13.88653000    0.10843000      0.315530   -0.36633000    0.04063700
Se   21.92310000   16.50182000   10.60852000      0.431406    1.25487300    1.32106600
Se    0.94635000   20.41549000    1.74472000      0.480523    0.64673100    0.09937400
Se   20.68601000   21.28903000   14.15627000     -0.516193    0.26181500    0.01195200
Se    3.85795000    5.11272000    8.62614000      0.116393   -0.16361800    0.26883700
Se   22.94605000    6.71818000   15.14590000      0.110564   -0.83465400    0.43753200
Se    4.23339000    9.44320000    9.57817000     -0.054672   -0.23298800   -0.39216500
Se    1.04772000    9.21840000   17.48128000     -0.103027   -0.43407600    1.15023200
Se    2.75181000   17.64287000    6.77039000      0.040761    0.13708700    0.33352200
Se   22.35822000   17.48259000   14.69577000     -0.018640    0.48487400   -0.20284100
Se    4.63206000   22.46246000   13.59947000     -0.321093   -0.09055100   -0.21929400
Se    8.30289000    0.73750000   16.79230000      0.320720    0.32120100   -0.28622200
Se    8.20854000    3.76555000    5.26770000     -0.087026    0.42799900   -1.31996900
Se    5.98943000    5.13475000   18.04195000      0.771195    1.21371900   -1.16228500
Se    6.55444000    9.92089000    5.74745000      0.015020   -1.55080500   -0.51112700
Se    3.48984000    6.59476000   15.75813000      0.375905    0.63318300   -0.61113100
Se    6.31032000   17.05315000    9.40597000      0.099892    0.42774300    0.52822900
Se    6.93539000   16.10060000   17.10143000     -0.106668    0.23068800    0.32467900
Se    9.06055000   19.69375000    7.35649000      0.191288   -0.58950100    0.01382900
Se    5.32826000   22.29851000   18.50679000      0.746360   -0.17385500    0.50429500
Se   16.67130000    2.02179000    6.30826000     -0.373208    0.13224800    0.33021500
Se   13.50039000    4.65875000   14.89476000     -0.750088   -1.65590800   -0.23570900
Se   13.95609000    8.07001000   10.53701000      0.326168   -0.50136200    0.83493000
Se   13.77862000   11.09462000   16.12976000      0.003440   -0.06127800    0.26630300
Se   13.87382000   15.06449000    5.38257000     -0.094450    0.48417300    0.47335300
Se   13.72409000   16.18026000   17.34014000     -0.474032   -0.82235100   -0.89193800
Se   13.49397000   22.11554000    7.73560000     -0.238349    0.06580800    0.29652800
Se   17.87601000   20.21181000   19.03752000     -1.263277    0.13859100   -2.30996600
Se   18.46346000    2.77518000    9.56948000     -0.609661    0.18158200   -0.53468300
Se   21.24672000    2.59886000   17.46056000      0.533489   -0.40415900    0.38112600
Se   17.33576000   10.03744000   11.28551000      0.174957    0.58393100   -0.81329100
Se   16.48753000    9.78089000   16.71639000      1.391104   -0.05571200    0.20440000
Se   15.29888000   16.14894000    9.03007000      1.066492    1.69535100    1.03872700
Se   19.09762000   16.01745000   14.56047000     -1.084945   -0.13779900   -0.19704600
Se   18.77380000   17.42837000    8.92312000      0.098908    0.18205300   -0.01481500
Se   19.06065000   20.10507000    1.53619000      2.303188    0.40832100    1.56405600
Se    4.46720000    1.05485000    8.37986000      0.972979   -0.49016400    0.82256200
Se    1.53655000    3.13898000   18.68893000     -0.810748   -0.31866600   -0.56216900
Se    6.38296000    7.39348000   10.74425000      0.413003    0.09380700    0.55734700
Se   22.94807000    8.10973000    0.38945000      0.580745    0.63228100   -1.00743500
Se    4.67702000   14.66766000    7.30587000     -0.163083    0.35355300    0.06912000
Se    4.59676000   13.75185000   17.05603000     -0.256718   -0.48248200   -0.00268100
Se    2.78826000   20.39114000   12.03521000      0.564978   -1.21959900   -0.47010100
Se    0.91387000   17.24745000   17.59272000     -0.929394   -0.70027000   -0.20225000
Se    9.34309000    1.37325000    9.90255000      0.234146    0.14404100    0.85026200
Se   10.73711000    4.66121000    1.66609000      0.238210    0.39327200   -0.23017900
Se   11.61675000    4.94390000   11.84761000      0.309069   -0.32238900   -0.45893900
Se    4.91330000    7.52905000   19.12486000     -0.181752    0.14618300    0.32137800
Se   11.00231000   14.32024000    8.14496000      1.053796   -1.27544600   -0.31033600
Se    8.52596000   13.16836000   17.47067000      0.001415   -0.15448400    0.48309600
Se   11.38297000   21.11679000    8.41036000     -0.044576    0.83906100   -0.47782400
Se   11.77594000   14.36075000   16.75762000      0.403681    0.33031400   -0.37072000
Se   18.60690000   20.37612000    8.49699000     -0.165004    0.09606800    0.59411100
Se   14.83645000    5.11077000    0.11011000      0.705091   -1.64751500    0.55747900
Se   15.43417000    4.59237000   10.14598000      1.579181   -0.35192800    0.04906000
Se   10.72046000   10.60457000    0.40745000      0.103217   -0.61438400    0.30707100
Se   16.44862000   12.42178000   10.47862000      0.440371   -0.96665400   -0.25575200
Se   16.04534000   13.27769000   17.63114000      0.903432    0.25448700    0.30140100
Se   15.23103000   18.89110000    6.56752000      0.303105   -0.50058700   -0.22061900
Se   15.99247000   21.56266000    2.50444000     -0.142051    0.08232700    0.33050900
Se   22.45693000    1.42066000    8.42823000     -0.917161   -0.66722600    0.43551300
Se   22.85067000    1.53723000   15.82697000      0.421963    0.29162400    1.25941900
Se   19.36724000    6.22555000    7.97901000     -0.089659    0.08046200   -0.03914100
Se   20.65725000    7.63737000   19.04230000      0.135127    1.43006100   -0.32344900
Se   21.40504000    9.53529000    6.66919000     -0.546828   -0.06069200    0.33815600
Se   20.54674000   10.05454000   18.14421000     -0.506742   -0.65964400   -0.17719000
Se   20.61860000   17.07698000    6.61010000     -0.058184    0.89128500   -0.80464700
Se   18.34217000   17.62188000   18.40042000     -0.372120   -0.17350800   -0.60682900
Se    2.35015000    1.79395000    8.74216000     -1.097196   -0.00155800    0.58997400
Se    2.67889000    3.07891000   16.50986000     -1.023331   -0.44032300    0.28334100
Se    1.36516000    7.56379000    7.09459000      0.200382   -0.30372200    0.10836200
Se   21.27997000   10.03190000   15.65584000      0.686611   -0.78373800    0.61141500
Se    1.53518000   14.71980000    7.85349000     -0.024229    0.33685300   -0.43371500
Se    0.89306000   12.33772000   16.50539000     -0.766331   -0.47327100    0.88686100
Se    1.26692000   17.86888000    4.60988000      0.231453    0.05961200    0.09491400
Se    2.15610000   20.27220000   15.25281000     -1.006172   -1.04755800    0.03941900
Se    8.40734000   22.76674000    4.88415000      0.199223    0.31562900    0.48140800
Se   12.19843000    1.06989000   18.71827000     -0.196166   -0.07450200   -0.18847100
Se    7.64883000    5.74492000    7.02817000     -0.874405    0.26797400   -0.40885200
Se    7.53543000    7.26381000   14.54456000      0.207008   -0.49775400   -0.43437300
Se    8.23012000   13.08270000    5.56032000     -0.530020    0.28343100   -0.54708200
Se    7.51083000   16.69854000   13.36824000     -0.390625   -0.48793100   -0.06020700
Se    3.86173000   19.96593000    6.84468000      0.013189    0.21743300   -0.33254600
Se    8.02299000   15.00352000   15.10537000     -0.274118    0.16384500   -0.11667400
Se   13.94865000   20.54552000    5.47390000     -0.166756   -0.06431800    0.49199100
Se   15.43383000    1.49055000   17.06114000     -0.827782    0.29851200    0.35700700
Se   12.86709000    5.45066000    8.05350000     -0.423711   -0.03167900   -1.06016900
Se   11.12755000    7.44239000   15.51962000      0.265699    0.11206500    0.07680100
Se   14.54961000   11.06413000    5.82148000     -1.069356   -0.75341300    0.45488500
Se   13.31159000   13.26758000   12.57942000      0.331751   -0.64947400    0.00945600
Se   10.34299000   16.29943000    5.28407000     -0.185791   -0.09898700   -0.75309300
Se   13.36358000   20.27163000    0.15362000      0.190418    0.15577900    0.09700800
Se   19.99175000    1.67130000    5.85509000     -0.086933    0.84671800   -0.55269700
Se   18.98343000    0.41111000   16.80629000      0.648549   -0.81791100   -0.07879100
Se   16.71702000    4.77501000    6.12444000      0.451208   -0.15920100   -0.48364900
Se   18.28310000    6.38371000   16.40806000     -0.604237    2.23706900   -2.12957800
Se   20.19076000   11.22338000    4.67330000      1.980988   -0.71341400   -0.66034500
Se   16.83212000   12.28606000   13.86276000      0.276527    0.51287500    0.49284200
Se   18.19687000   19.26145000    5.09538000      0.184304    0.07510500    0.37857400
Se   17.39465000   22.26634000   13.77436000      0.378994    0.12596900   -0.56996400
Se    3.85348000    6.71627000    5.81490000     -1.232762   -1.06409200    1.88353700
Se    3.96711000    4.30910000   12.53081000      0.245338    0.04752700    0.18692600
Se    1.32821000    8.60606000    3.50467000      0.690671    0.15236100   -0.64184900
Se    4.29238000   10.10019000   16.64131000     -0.621581    0.76613600   -0.28636400
Se    6.24146000   12.09080000    6.41442000     -0.321076    0.64575900    0.58851400
Se    4.80064000   18.27167000   17.31449000     -0.694021   -0.16224300   -0.30624800
Se    1.99240000   21.89393000    5.90323000     -0.630107   -0.29604300    0.41472300
Se    6.80731000   21.64045000   14.15165000      0.147385    0.51341200    0.18503200
Se   11.15458000    2.06646000    7.32534000      1.197625   -0.27259500   -0.79580100
Se   12.08090000    4.39645000   17.14502000     -0.523624    0.56428900    0.53717800
Se   10.65721000   10.89858000    6.33386000      0.665838   -0.19690200   -0.58693600
Se    7.19358000   10.70681000   14.14731000     -0.266922   -0.23185300    1.25132600
Se    8.99473000   15.34328000    8.48982000     -1.311819    0.07542900    0.35396100
Se   10.07446000   17.61923000   15.90860000      0.368042    0.08085000   -0.12564800
Se    8.03322000   18.82125000    4.45481000      0.004406   -0.13831700    0.27579000
Se   10.18479000   21.29550000   16.65368000      0.534523    0.55651900   -0.24613100
Se   13.32464000    3.63703000    4.59373000     -0.570075    0.51127800    1.82989800
Se   17.66776000    3.67377000   14.81923000      0.265255   -0.67045100   -0.05979600
Se   15.92083000    7.54817000    7.53915000      0.106630    0.39055700   -0.36128200
Se   16.46952000    8.52083000   14.11976000     -0.177097    0.23067000   -0.30078100
Se   17.38747000   11.34712000    6.75156000      0.600676    0.26589600   -0.32484800
Se   16.24580000   17.71888000   16.22663000      0.188520    0.86520300    0.90662100
Se   15.09637000    0.47071000    5.40654000      0.286229    0.31714800    0.38724600
Se   18.69584000    3.15441000   12.56957000     -1.068487   -0.26847400    0.34107800
Se    0.01900000    4.55636000    7.34677000      0.650624   -0.00522600   -0.48281800
Se   21.96064000    4.08368000   12.55167000      0.460241   -0.64098200   -0.21083700
Se   19.71723000   12.58831000    6.98497000     -0.012897   -0.04991800   -0.03185400
Se   19.81615000   12.74260000   16.50700000      1.694903    1.77946400    1.17658400
Se   22.24804000   13.70765000    6.50742000      0.314101    0.06982700    0.32396700
Se   19.31486000   19.19994000   14.41919000     -0.422088    0.24425900    0.23612700
Se   22.31998000   19.64587000    6.99819000     -0.841831    0.86118600    0.04652600
Se   22.08303000   20.46213000   17.88094000     -0.221135   -1.00784600   -1.08746500
Se    4.01659000    2.71672000    5.53166000      0.444762   -0.63913500   -0.48854000
Se    7.61656000    2.69225000   15.37197000      0.035606   -0.52087400    0.54828100
Se    2.95652000    4.18461000    0.76978000      0.293606    0.35731700    0.29451500
Se    2.42956000   10.81369000   11.79706000     -0.531129   -0.49974500   -0.13155700
Se    0.72280000   12.04397000    3.41409000     -0.261241   -0.13865800   -0.20417900
Se    2.22481000   15.08469000   14.99385000      1.236014    1.14861700   -1.67292800
Se    4.05369000   16.41115000   18.97277000      0.525255   -0.25071300    0.18885400
Se    4.70773000   18.57440000   12.80175000     -0.679870    0.49479700    0.69062400
Se    9.98567000    0.93494000    3.20582000     -0.303271   -0.20625900   -0.04293200
Se   11.75968000    2.14122000   14.84876000     -0.866246   -0.50042600   -0.16622900
Se    8.94618000   10.02889000    3.05045000      0.301654    0.22464200   -0.29939800
Se    6.57883000    8.39289000   17.59367000     -0.150742   -0.05303500    0.19628100
Se   12.04255000   13.03674000    3.06956000     -0.121616    0.04422900    0.30053400
Se    9.20268000   13.71575000   11.85616000     -0.454570   -0.88855900   -0.44879100
Se    9.23459000   20.94131000    1.85908000     -0.338649    0.08239700   -0.50834000
Se    9.13595000   18.39207000   13.82837000      0.385610    0.42103900    0.91785700
Se   19.44130000   22.31489000    7.36887000     -0.113470    0.09259700    0.09240200
Se   15.33571000    2.34378000   12.17954000      0.067976   -0.04277500    1.06840900
Se   14.82839000    6.86136000    3.34111000     -0.027593   -0.64987200   -1.32045100
Se   14.75177000    6.13751000   16.11624000      0.956634    1.39552300    0.48545400
Se   15.92063000   12.88347000    2.63688000     -0.895226    0.18453800   -0.51245700
Se   15.06672000   16.76857000   12.80391000      0.591973   -0.42187000    0.01062400
Se   16.29285000   16.71498000    2.39779000     -0.267485    0.30744400   -0.11179100
Se   14.98401000   19.40715000   15.20823000     -0.619726    0.30325300   -0.49470000
Se    0.07922000    0.09065000    4.46350000      0.045362   -0.34078800   -0.19952300
Se   22.28692000    0.43259000   13.92171000     -0.509977   -0.70168900   -1.19268900
Se   18.79932000    2.19580000    3.72036000      0.655105    0.33177000    0.49227100
Se   19.56294000    9.56370000   14.00255000     -1.027659    0.33195800    0.59924000
Se    3.01654000   10.69938000    6.25046000     -0.160221    0.90530100   -0.17784200
Se   21.41639000   15.11577000   15.95237000     -0.221115    0.25104900    0.06582400
Se   22.70431000   18.34155000    2.63310000     -0.327707    0.01788700   -0.15125900
Se   22.33801000   19.41804000   11.00874000     -0.577805    1.21482600    0.24265600
Se    0.52530000    4.96745000    4.77648000     -0.284019    0.37193800   -0.18177100
Se   21.42633000    4.77914000   15.13939000      0.110089    0.91316000    0.63581200
Se   21.29345000    9.74735000    2.69673000     -1.158143    0.13805300    1.06948000
Se   22.04399000   11.48140000   13.65230000      1.529569    0.69773500   -0.60073100
Se    2.15980000   13.70098000    0.55155000     -0.315643    0.09860800   -0.31834000
Se    2.65088000    1.55159000   13.31352000     -0.575295    0.26977700   -0.45366800
Se    3.75062000   22.46164000    2.78859000     -0.868787    0.94166300   -0.18753700
Se    5.32295000   19.05420000   15.11860000      0.826677    1.09257800   -0.86508800
Se    9.34293000    4.74735000    8.40998000      0.002323    0.44070100   -0.08499000
Se    8.49247000    5.22075000   13.61077000     -0.272174    0.55001100    0.41783100
Se    5.49729000    6.18374000    4.14321000      1.179553   -0.26279000   -1.07323900
Se    7.97061000   11.17220000   12.17601000      0.546008    0.57759100   -1.73977300
Se    7.81361000   15.42960000    2.76966000      1.174335    2.19669600   -1.32430600
Se   11.66026000   15.57021000   13.28177000      0.632096    0.42986000    1.41505400
Se    7.53667000   22.25680000    7.25256000      0.036514    1.59133900   -0.45045100
Se   10.10436000   21.28709000   12.00568000     -2.655885    1.25790900    0.11140100
Se   12.50814000    0.25697000    3.06654000      0.218732   -0.31204200    0.39288300
Se   10.09692000    2.09807000   13.04076000     -0.088435    0.76642100   -0.47378400
Se   15.31299000    9.17146000    3.58733000     -2.575074    1.46944900    2.09376400
Se   11.17231000   10.99213000   13.69509000      0.295922   -0.31057500   -0.80627700
Se   12.53565000   17.10864000    1.57120000      1.094570   -0.53385100    0.19512900
Se   13.30975000   17.66279000   14.02893000      0.084913    0.46915100    0.82444500
Se   11.72231000   19.85244000    3.70103000      0.219494    0.01006100    0.11953400
Se   13.99455000    0.15127000   15.31555000     -0.461233   -0.19392300   -0.43303400
Se   20.34879000    2.96644000    0.64710000      0.036840    0.24438800   -0.12434700
Se   17.39186000    6.63429000   13.02270000     -1.022060   -0.33978900   -0.28780800
Se   18.74000000    7.72982000    4.38069000      0.175044   -0.19263400   -0.21502300
Se   20.33436000   13.51961000   12.41717000      0.136617   -0.17545900   -0.40103400
Se   22.74352000   15.86529000    2.78739000     -0.366580   -1.32003300    0.09767900
Se   18.50441000   14.86379000    9.59953000      0.271305    0.33075800   -0.87186000
Se   20.07304000   20.65647000    4.74636000     -0.137775    0.57168100   -0.39134100
Se   17.71579000   22.03086000   11.10774000     -0.089060    0.05967000    0.69876800
