384
23.00800000 23.00800000 19.32000000
Ge    5.19091000    5.04852000   11.05370000     -0.319948    0.82593100    0.51024600
Ge    5.02012000    5.68886000    1.86976000     -0.911990   -0.83238400   -0.25697900
Ge    1.13809000   11.82850000    8.01458000      0.463657    0.39284200    0.08056700
Ge    6.71723000   11.12758000   17.93835000     -0.397276    0.83963200   -0.64770100
Ge    4.26502000   15.03740000   10.12342000      0.606021   -0.74601700   -0.96718100
Ge    8.18956000   18.74355000    1.12396000      0.587575    0.18347000   -0.23321000
Ge    9.08817000   20.41907000    9.51741000     -0.343641    0.18105200   -0.34830300
Ge    4.51153000    1.69752000    0.02639000      0.618258   -0.49115100    0.18901400
Ge    8.64523000    5.16726000   11.15613000      0.775211    0.49482200   -0.37112600
Ge   11.88243000    5.21411000    0.63164000     -0.605833   -0.30654700   -0.33263900
Ge   10.92688000   11.35867000    9.07719000     -0.634378    0.10076800   -0.10453100
Ge   10.74014000   12.35644000   17.61473000     -1.212160   -0.13556500   -1.17934800
Ge   10.19269000   16.73926000    8.11477000      0.431740    1.05318500    0.33023400
Ge   12.13254000   14.64377000    0.14891000      0.295415    0.25615900    0.84549000
Ge   10.55551000    1.68000000   10.29731000     -0.938103   -0.34045800   -0.88506800
Ge   15.18101000   21.23443000    0.55250000     -0.169134    0.87191900    0.21293500
Ge   19.16778000    5.69356000   10.17078000      0.189836    0.12664400   -0.82685900
Ge   18.82581000    8.85764000   16.02682000      0.656627    0.35413900    0.17341700
Ge   21.06974000   14.02799000   10.46014000      0.572895    0.66767500    0.47946600
Ge   16.25363000   10.88049000   18.75128000     -0.029519    0.32855100   -0.21367100
Ge   13.99299000   16.43311000    8.68136000     -0.109808    0.31940100   -0.68787200
Ge   17.86291000   15.53208000    1.37542000      1.215790   -0.15323800   -0.07193600
Ge   18.14395000    1.13888000    9.37416000     -0.155395   -0.70330200   -0.26259600
Ge   18.03819000    2.40724000    0.08187000     -0.601375   -0.87690800   -0.01420300
Ge   22.76395000    5.40120000    9.90699000     -0.542992   -0.17441500   -0.18320000
Ge   19.97624000    4.06040000    0.96196000      0.213003   -0.04944900    0.05552400
Ge    0.41924000    9.63957000    9.60572000      0.128700    0.07286200   -0.70450000
Ge    0.86077000   11.74811000   18.77635000      0.543767    0.34941600   -0.23324200
Ge   21.80554000   15.65285000    8.12236000     -0.534927    0.46711500    0.37985300
Ge    2.22044000   16.46088000   17.90717000      0.115595   -1.05938300   -0.59134400
Ge   20.50670000   21.72214000    9.43377000      0.234046    0.18500500    0.51639300
Ge    1.17291000   22.12090000    0.43336000      0.469949   -0.45298500   -0.64015800
Ge    5.20489000    9.20972000    8.47956000      0.306020   -0.80313500   -0.03293400
Ge    0.53281000    6.11422000   18.94309000      0.534507    1.47665000   -0.37656400
Ge    0.90308000    8.87791000    5.10626000      0.633432   -1.09867200   -0.10306200
Ge    4.41328000   13.77835000   16.79964000      0.492583   -0.21162200   -0.62397500
Ge    4.46181000   18.40469000    2.91619000     -1.327104   -0.86692000   -0.24729900
Ge    1.87491000   19.48133000   18.44961000      0.087124   -0.01651500   -0.37927600
Ge    5.66536000   18.67779000   10.09928000     -0.380489    0.18694300   -0.64319900
Ge    4.02946000    0.10007000   16.87700000     -1.285147    1.89866500    0.60233000
Ge    9.04877000    3.72924000    7.56871000      0.001077    0.75265600   -0.58470200
Ge    7.83510000    5.69564000   17.24169000     -0.096189    0.28430600    0.00737000
Ge    6.82329000   13.34845000    4.33647000     -0.054285   -1.15596600   -0.20950000
Ge    8.48958000    7.94511000    1.20497000     -0.445396   -0.22654000   -0.61866100
Ge    6.31742000   17.10708000    7.18884000     -0.311074   -0.49862500    0.13282500
Ge    8.87837000   16.23997000   16.80405000      0.401983   -0.94151300    0.62684100
Ge   10.68584000   22.77399000    5.07672000     -0.100852   -0.40688400    0.52238400
Ge   10.89859000   21.69655000   14.08858000      0.367430   -0.17213900    0.91882100
Ge   13.25121000    6.47912000    8.43586000     -0.465068   -0.49576800   -0.65665400
Ge   13.43375000    6.27634000   16.18490000      0.236181    0.83429000    0.84159900
Ge   13.63698000    9.97173000    7.53654000     -0.274320   -0.07716000   -0.53416100
Ge   15.46894000   12.96330000   15.91878000     -0.169705    0.25293200   -0.51263400
Ge   12.92291000   17.01600000    5.50349000      1.050825   -0.35155200   -0.04494100
Ge   13.78837000   17.64711000   18.64447000      0.249208    0.97288300    0.74182100
Ge   13.74036000   22.33357000    8.55706000      0.274231    0.53634900    0.00858700
Ge   15.78254000    1.55622000   14.57792000     -1.402572    0.57450800   -0.01447600
Ge   20.45581000    3.47575000    6.50783000     -1.027771    0.81375300   -0.51580700
Ge   20.18764000    5.69181000   16.84174000      0.076887    0.19739000   -0.70002400
Ge   17.63864000   10.71367000    7.18328000      0.257961    1.57256300    0.41180200
Ge   20.02797000   13.33441000   17.49435000     -0.735581    1.42383500    1.19554600
Ge   18.21081000   16.24497000    5.54997000     -0.551546    0.44216100    0.76758300
Ge   18.27840000   20.54266000   18.01856000      0.615223    0.61921200   -0.63713500
Ge   21.70102000    1.28153000    7.55002000      0.453967   -0.01549900   -0.08382100
Ge   19.32014000   22.00544000    0.81478000     -1.660543   -1.00939600   -0.37564200
Ge    5.65112000    2.89625000    7.81901000     -0.384613    0.20552800   -1.09780800
Ge    4.72408000    4.59461000   15.50975000     -0.363358   -0.38572600    0.55688700
Ge    3.15508000    6.94309000    3.86641000     -0.326337    0.28530400    0.89305400
Ge    2.91565000   10.12885000   12.96719000     -0.267818   -0.41325000    0.65019100
Ge    1.49455000   15.39792000    3.47423000      1.067029    0.94983200    0.79187600
Ge    1.05587000   19.03353000   14.75677000     -0.364458   -0.05399000   -0.80667500
Ge    2.34972000    1.34844000    8.07194000     -0.639586   -0.61254600    1.27482600
Ge    5.67901000   18.90593000   15.73264000      1.055637   -0.62800700    0.65944600
Ge    9.19157000    3.28191000    2.88926000     -0.345644    0.30229100    0.06615900
Ge    9.74966000    1.50534000   15.28414000     -0.200086   -0.10533800    0.84583000
Ge    8.74218000    9.87592000    5.37743000     -0.588705   -0.55037800   -0.28063000
Ge   10.05961000    9.86219000   14.63989000     -0.521915    0.43698500   -0.74743400
Ge   10.63863000   14.27514000    4.88789000     -0.223777   -0.51468300    0.72888000
Ge   12.59123000   12.19954000   13.40424000     -0.047095   -0.88022200    0.61332700
Ge    6.11805000   21.57139000    2.59516000      0.220266    0.29222600    0.37594400
Ge    8.97272000   18.62772000   15.69430000      0.403166    0.26360500   -0.38095600
Ge   13.64216000    1.38790000    6.43080000     -0.234598    0.25912000    0.08322700
Ge   11.70677000    4.28950000   15.18378000      0.146981   -0.27281700    0.11727500
Ge   15.52364000    6.49583000    6.18486000      0.192105   -0.03427000    0.35318200
Ge   14.62781000    8.85534000   14.68072000      0.000203    0.83236100    0.19793900
Ge   15.09297000   13.78424000    5.39298000      0.080169   -0.01192600   -0.12522300
Ge   14.54170000   16.41026000   14.69654000      0.662341    0.10652500   -0.78293500
Ge   11.64491000   17.89181000    3.33850000     -0.042108    0.64119700   -0.99729000
Ge   10.37309000   21.55520000   17.11825000     -0.836980    0.34392400   -0.55191600
Ge   17.97521000    4.98314000    3.68825000      0.518298   -0.37648700    0.34549600
Ge   20.60141000    2.24540000   12.56897000      1.045898    1.42296200    0.04528500
Ge   20.06422000    7.89808000    5.89931000     -0.032360    0.03904700    0.55543600
Ge   18.74707000   11.54111000   13.97061000     -0.540212    0.62235600   -0.64380400
Ge   21.38190000   15.01989000    1.43169000      0.559699    2.11788700    0.44144900
Ge   19.95338000   15.09189000   13.29753000     -0.709114   -0.60896400    0.68283500
Ge   19.35916000   19.56025000    5.66943000     -0.222479   -0.68615400    0.22585700
Ge   22.62400000   21.17123000   15.69884000     -0.682068    0.63360600   -0.02416600
Ge    5.56631000    2.39846000    4.16756000     -0.230746   -0.19594700   -0.94309200
Ge    5.23602000    1.55779000   14.31458000      1.597005    0.81104400   -0.78169400
Ge    5.84694000    9.06977000    4.14173000      0.271965    0.85226300   -0.12085000
Ge    6.64256000    8.27315000   12.45217000      0.206421    0.21492500   -0.03245500
Ge    6.84998000   15.54662000    3.16042000     -0.953437   -0.11118700   -0.33369300
Ge    3.89833000   13.74173000   13.92184000      0.148248   -0.24586500   -0.86444200
Ge    5.42831000    0.47447000    6.40275000      0.165179   -0.50696700   -0.59139100
Ge    7.22553000   19.67340000   12.31375000      1.524701    0.65449100   -0.00671100
Ge   12.27232000    4.20160000    4.55786000      0.428846   -2.46547700    1.18355300
Ge    7.87286000    1.42222000   13.01600000     -0.438396    0.98906700    0.82642200
Ge   11.64730000    8.80783000    0.76930000     -0.132003    0.12284000   -0.76026000
Ge   11.79175000    6.20789000   13.03122000     -0.690225    0.74781500   -0.37100200
Ge    9.92567000   13.78307000    1.52315000     -0.185813   -0.12795300    0.08673800
Ge    8.75147000   14.65703000   11.81189000      0.262691    0.07392500    0.10178800
Ge   11.88155000   20.40896000   18.84439000      0.639915   -0.06504500    1.18161200
Ge   12.04637000   19.97122000   10.58162000      0.529297   -0.43672100    1.74927600
Ge   21.67949000    0.86618000   17.80067000     -0.475492   -0.61143500    0.01519300
Ge   14.55328000    5.34809000   12.14288000     -0.985400    0.40380800    0.31109000
Ge   17.22865000    8.31518000    1.14042000     -0.465389   -0.13990100   -0.63174500
Ge   14.84929000    9.40236000   10.15729000     -0.005751    0.19542800    0.03143800
Ge   16.62298000   11.85301000    3.06324000      0.905626   -0.21824500   -0.65640200
Ge   17.98379000   14.85522000    9.00557000      0.212613    0.54671200   -0.32073900
Ge   17.29074000   18.12772000    1.98927000      0.487904    0.60125600   -0.15894800
Ge   16.18759000   21.03609000   11.84968000      1.149644    0.25780300    1.41227400
Ge    0.24016000    1.95961000    1.38831000      0.125456    0.61420400    1.47077900
Ge   22.97906000    0.32452000   10.96275000      0.513941    0.13265500    0.44793700
Ge   21.95028000    7.35077000    2.60149000     -0.242847    0.16216800    1.15463300
Ge   22.12815000    9.91048000   12.32233000      0.304469   -0.77663700    0.33713800
Ge   22.90160000   12.88704000    4.22861000     -0.983527   -0.24926400   -0.58839700
Ge    1.18620000   15.95634000   10.33107000      0.384389    0.88881200   -0.63233300
Ge    0.54765000   20.81609000    4.44575000      0.840684   -0.02970800   -0.36315800
Ge   20.97002000   17.45460000   12.02412000     -1.551412    2.48596600   -0.55999500
Se    1.18827000    1.52440000   18.60674000      0.036074   -0.85273000   -0.82965100
Se    1.42580000    3.64432000   11.61440000      0.406357   -0.09587200    0.12123100
Se    1.20169000    7.73162000    1.90628000     -0.154908   -0.13015300   -0.66818800
Se    0.52555000    7.85761000   11.22094000     -0.146926    0.55838500    0.43737100
Se    3.22826000   11.54706000    0.93948000     -0.698762    0.36226400   -0.74794500
Se    1.88655000   13.70487000    9.75361000     -0.338372   -0.91129800   -0.18559100
Se    1.98050000   18.37096000    3.62751000      0.425688    0.52300900   -0.15573100
Se    1.99063000   18.65558000    9.59403000     -0.400513   -0.32428600   -0.20730100
Se    7.18556000    1.85155000    2.19349000     -0.573687   -0.11324100    0.39856500
Se    7.74250000    1.25315000   10.68052000     -0.385850   -0.24363200   -1.04229200
Se    7.19443000    5.32519000    1.29956000      1.411873   -0.21709500   -1.01663900
Se    9.49381000    7.18913000   12.20112000      0.702419   -0.06877100    0.16383200
Se    8.27289000   11.11130000    0.52605000     -0.468982   -0.30399500    0.74899000
Se    6.20969000   13.62904000   12.40320000     -0.188397   -0.01470400    0.40892200
Se    5.10745000   19.90012000    0.95630000      0.058482   -0.10753200    0.36692700
Se    9.47551000   18.78088000   11.40587000     -0.375617   -0.27069900    0.23470600
Se   14.02409000    2.13328000    0.33627000      0.495122    0.11128300    0.46455200
Se   12.88415000    1.02749000   10.43278000      1.356425   -0.45561200   -0.25371000
Se   10.27783000    7.06191000   18.42756000      0.523604   -0.61443800    1.28653200
Se    9.26077000    9.31869000    8.74994000     -1.236058    0.69936500    0.00311000
Se   11.77543000   12.03401000    0.47856000      0.196289    0.70799000    0.66346000
Se   12.96232000   11.72385000   10.63499000      1.035132   -0.16398300   -0.46455400
Se   15.52978000   15.82913000    1.97253000     -1.699233   -0.08037700    0.58613900
Se   12.04121000   17.20328000    9.92951000     -0.883078    0.02192600    0.14459400
Se   16.60126000    3.24955000    2.49111000      0.148290   -0.09908000   -0.45320900
Se   15.93127000    3.53427000   11.35233000      0.501103   -0.98138000   -0.28328000
Se   15.80222000    6.99224000   18.26380000      1.335306   -0.34274600   -0.39933300
Se   20.44117000    5.90689000   12.28151000     -0.227160    0.66656800   -0.51051800
Se   18.54369000   10.10827000    0.01731000     -0.221531   -0.03394700    0.18444000
Se   16.10311000   15.58863000    7.40067000      1.007798   -0.74870000   -0.68475600
Se   20.12043000   17.00100000    0.32076000      0.385582   -1.03725600    0.56223000
Se   18.38963000   20.14582000   11.07453000      0.057418   -0.15862600    0.27109700
Se    3.71777000    3.73868000    2.71791000      0.851693    0.79851700    0.15071800
Se    3.61264000    6.94227000   12.32530000      0.528873   -0.42527100    0.06872800
Se    6.27320000    9.92525000    1.55410000      0.225322   -0.16504700    0.76401000
Se    4.93642000   12.50701000   10.76395000      0.241955    0.48910100   -0.29185500
Se    4.34815000   15.78182000    4.14988000      1.255514    0.05956600   -0.56057500
Se    3.13428000   15.93482000   12.01715000     -0.344793    0.36543200    0.13430800
Se    2.76928000    1.15475000    1.92289000      0.071021   -0.83344600    0.12591900
Se    6.62658000   21.13335000   10.39699000      0.536998   -0.34486400   -0.10182200
Se   11.35656000    5.92555000    3.56196000     -0.578114    1.31060300   -1.11106300
Se    6.93956000    3.51692000    9.84506000      0.561523   -0.88228500   -0.41146300
Se   10.17237000    9.81186000   17.83872000      0.253730    0.32032100   -0.19523300
Se    7.11572000   10.67515000    9.30102000      1.714034   -0.04414700   -0.04495500
Se   10.78809000   17.80720000    0.97088000     -0.593962    0.18473000   -0.58484600
Se   11.53969000   14.81323000   11.33970000     -0.227051   -0.23763500    0.59864200
Se   12.96728000   22.66119000    0.72525000      0.396204   -0.09645500   -0.48976100
Se   10.94421000   22.02089000   11.66909000      0.054966    0.69301600   -0.97243900
Se   14.45552000    4.60769000    1.36822000     -0.790943   -0.46034000    0.20922700
Se   16.77316000    7.52542000    9.67912000     -0.025932   -0.94450200    0.77168900
Se   14.84978000    9.49411000    1.38062000      0.618763   -0.34807500   -0.70582800
Se   15.31943000   10.21677000   12.61654000      0.242512    0.32524300   -0.24404600
Se   18.63941000   13.92285000    3.13248000     -0.129423    0.20050500   -0.11172200
Se   14.53344000   12.62375000    9.01829000      0.517300   -0.25979700    0.16770900
Se   16.93206000   22.68677000    1.88088000      0.604156   -0.15194400   -1.10997500
Se   14.65456000   20.56863000   10.13640000     -1.188197   -0.25577300   -0.73581900
Se   20.93385000    0.71878000    1.59941000     -0.620988    0.89299100   -0.04511200
Se   21.86483000    2.79921000   10.52978000     -0.203050    0.53360000   -1.00900400
Se   19.86830000    6.62847000    1.13059000      0.070919    0.19692000   -0.59367500
Se   20.89008000   10.39639000   10.13797000      0.557964   -0.48105500    0.74646400
Se   20.40651000   13.10586000    0.69139000     -0.457949   -1.27912600   -0.65509000
Se   22.54956000   15.87164000   12.15107000      1.408085   -1.23806700    1.14861700
Se   22.46600000   21.95303000    2.27194000      0.560792   -0.41060800    0.07349000
Se   20.02048000   20.11593000   15.72371000      0.630816   -0.03757600   -0.38516600
Se    4.03371000    4.94541000    8.44520000     -0.037027    1.17878000   -0.19105000
Se    1.32763000    6.14765000   16.48207000      0.077922   -1.26857400    0.07608400
Se    3.71839000   11.11172000    8.23138000     -1.162581    0.58198600    0.00760200
Se    3.41578000    9.84849000   18.39715000      0.216955   -0.37139800    0.27472000
Se    4.69564000   19.28242000    7.42895000      0.019914   -0.44676800    0.25788100
Se    0.50206000   17.47358000   16.59394000     -0.310681    0.39475400    0.20704300
Se    2.60998000   21.88325000   11.77041000      0.049775   -0.34525400   -0.21104700
Se    4.85539000   20.95105000   16.98580000      1.151871   -1.23712600    0.54792900
Se    7.08378000    3.72247000    5.75086000     -0.129279    0.29715300    0.79111700
Se    6.22803000    3.28766000   17.38377000     -0.541829    0.68040200    0.24928800
Se    6.47850000   10.71446000    6.22250000      0.120560   -0.27891500   -0.19918600
Se    4.82829000    6.22181000   17.50644000      0.105760    0.54919300   -0.11109700
Se    6.94220000   16.36008000   10.01108000     -1.327493    0.48462600   -0.41486000
Se    7.46559000   17.35830000   18.38999000     -0.263834   -0.24296800    0.36968700
Se    8.70501000   18.79113000    7.67292000      0.076851   -0.20144000    0.30308500
Se    6.18196000   22.25645000    0.12032000     -0.178130    0.78414000    0.33414400
Se   13.55173000    3.15792000    9.11928000      0.908810   -1.15181400   -0.18882900
Se   13.17802000    4.25113000   17.55605000     -0.762673    0.42015500   -0.42818400
Se   12.74991000    8.04456000   10.14239000     -0.241831   -0.24159000    0.24673700
Se   13.66241000   11.33833000   15.75138000     -0.307807   -0.77817100   -0.14280500
Se   13.15767000   14.58689000    7.02357000     -0.600485    0.46780600    0.30415600
Se   13.93755000   14.57903000   17.79007000      0.761650    0.07448500   -0.69775400
Se   13.55382000   21.42864000    5.52517000     -2.800948   -0.58436800    2.53674000
Se   16.45513000   22.11530000   17.01018000      0.565206   -0.34718200    0.83639600
Se   18.01578000    3.50950000    9.52230000      0.478488    0.46264900   -0.59502600
Se   20.11845000    3.27401000   17.59103000     -0.452215    0.55996900   -0.03962600
Se   19.59044000    9.62484000    8.04980000     -0.302383   -0.71612100   -0.29495600
Se   16.76716000   10.26319000   15.85804000     -0.295906   -0.19846200   -0.14418700
Se   15.44062000   16.06322000   10.55963000     -0.014781    0.94364800    1.06468300
Se   17.97476000   14.80018000   17.05191000      0.803798   -0.16519900   -0.30338800
Se   17.54588000   19.89805000    8.89529000     -0.211036   -0.72406600   -0.17900700
Se   19.68718000   19.70453000    2.35190000     -0.527868   -0.00231400   -0.16374200
Se    4.51209000    0.23211000    8.65347000      0.473354   -0.29693500    0.47527100
Se    2.20392000    3.79382000   16.53695000      0.174529    1.31805600   -0.26293000
Se    6.74337000    7.04559000   10.18782000      0.400817   -0.25437800    0.26685200
Se    3.34685000    6.14550000    0.17063000      0.118618    0.21303200   -0.33882800
Se    4.04293000   15.62286000    7.39389000      0.353001   -0.31711200    0.21042900
Se    5.47820000   13.52170000   18.87181000      0.274284   -0.33684700    0.40798100
Se    3.66290000   20.34923000    9.85702000     -1.012694    0.36520400    0.21687700
Se    0.86402000   16.72921000    0.50904000     -0.234211    0.00267800    0.31870400
Se    9.80410000   22.43315000    7.82774000     -0.636483    0.01515300   -0.29177900
Se    9.86802000    3.55095000    0.51172000      0.637652    0.34378300    0.01895700
Se   11.43382000    4.01362000    9.21750000     -1.118743    0.96159900    0.35386100
Se    6.27370000    8.35804000   18.31562000      0.537713    0.17590300    0.10703400
Se   10.91531000   13.90988000    8.29602000      0.599656   -0.39283200   -0.18905800
Se    8.38306000   13.33596000   17.84664000      0.914653    0.01974800   -0.01594700
Se   11.65369000   20.61426000    8.38084000     -0.332266    0.09162600   -1.18531200
Se   11.47972000   14.91524000   17.11346000      0.104639   -0.00793400   -0.75493600
Se   15.69848000    0.93821000    7.86133000      1.001221   -0.38482200    0.73874500
Se   15.97705000    3.19861000   18.20690000     -0.184823   -0.80664200   -0.35363600
Se   15.53228000    5.41637000    8.95500000     -0.152808    1.24681200    0.19280600
Se   13.84859000    8.11756000   18.40935000     -0.919363   -0.17152700   -0.96755400
Se   16.87640000   11.44627000    9.43054000     -0.446035    0.82543400    0.14484400
Se   16.58873000   13.97482000   19.21065000      0.144816   -0.33671900   -0.51509600
Se   13.82304000   18.50104000    7.27068000      0.403755   -0.06690800    0.27786000
Se   16.46982000   19.15315000   19.03016000     -0.091213   -1.45480000    0.91184000
Se    0.07343000   21.56852000    9.11605000     -0.702738    0.63668800   -0.94624000
Se   22.58779000    0.68650000   15.57719000      0.229594   -0.56636200   -0.87752100
Se   20.67778000    5.81101000    8.08154000     -0.297133   -0.16715600    0.60434600
Se   21.16625000    7.48391000   18.37166000      0.223318   -0.31458700    0.31431400
Se   22.23379000    9.79487000    6.53477000     -0.508667   -0.15742500    0.51964300
Se   20.36647000   11.09599000   17.11085000      0.931225   -1.65686800   -0.70498000
Se   19.47317000   16.97873000    7.82157000      0.597944   -0.88391600   -0.08822000
Se   20.07303000   16.15804000   16.38635000     -0.228918    0.42122900    0.08518800
Se    3.47492000    3.05980000   10.16439000     -0.878930   -0.75524900    0.57905300
Se    3.19656000    0.38256000   14.43745000     -1.039851   -0.64066700    0.10548700
Se    1.07197000    7.88318000    7.55936000      0.239598    0.70722000   -0.37943200
Se    1.31300000    9.61729000   17.36843000     -0.035668    0.38537700    0.09131800
Se    0.65075000   16.52476000    6.80822000     -0.012459    1.01183900   -0.10783300
Se    2.02078000   13.69873000   17.06234000     -0.450795    0.16546100    0.38655000
Se    0.22192000   19.12443000    7.43424000      0.299649   -1.16504200   -0.27139200
Se    2.63896000   20.66072000   16.12978000     -1.785384   -0.34214100    0.59420600
Se    8.04258000    0.01527000    5.97606000      0.214738    0.20013200    0.22389700
Se   10.39083000    0.71818000   18.05683000     -0.190092   -0.17690600   -0.81714800
Se    7.65751000    7.14915000    5.96585000      0.559988    0.40992800    0.49303400
Se    6.54197000    6.94204000   15.10163000      0.116819   -0.30538700    0.13202400
Se    7.31546000   14.20394000    6.54067000      0.382092    0.33218100   -0.02781600
Se    8.87847000   16.71883000   13.71615000     -0.165516   -0.39404500   -0.16780600
Se    6.27901000   18.97136000    4.47138000      0.570581    0.25794700    0.08166500
Se    6.98680000   15.99682000   15.22044000      0.548098   -0.15197600   -0.63092500
Se   14.97697000   21.76176000    3.98145000      2.231531    1.17789200   -1.80587200
Se   14.24711000    1.34088000   16.43682000      0.321111   -0.38786500   -0.22231200
Se   13.28715000    7.59896000    5.82035000     -0.084283    0.10580200    1.13974300
Se   11.08371000    6.96337000   15.31576000      0.740245   -0.26470900    0.03953200
Se   13.26427000   11.79434000    5.65937000     -0.599476   -0.36007500    0.17807200
Se   14.59743000   14.01606000   13.26507000      0.401047    0.67640200    1.00068400
Se   10.47743000   16.97056000    5.67660000     -1.125010   -0.23357900    0.12872500
Se   13.63377000   19.93760000   17.08804000     -0.038208   -0.33673600    0.37400500
Se   20.01470000    1.39026000    4.16738000     -0.827122    0.04235600    1.12668800
Se   18.92250000    0.31846000   17.32095000     -0.036661    0.36492600    0.61998500
Se   17.77273000    3.94958000    5.92342000      0.882892    0.06451200    0.42752000
Se   17.95059000    6.61543000   16.13945000      0.309710   -0.70674600    0.31800700
Se   20.24250000   10.34703000    4.94275000     -0.275432    0.26889100   -0.16353900
Se   17.58381000   13.87581000   13.01032000     -0.131223   -0.79803900    0.57226000
Se   17.03677000   18.48271000    6.10491000      0.637358    0.02072100   -0.67026100
Se   17.43861000   22.89271000   14.32575000      0.465601   -1.70156800   -0.26096500
Se    4.11057000    7.12418000    7.06649000     -0.211352   -0.28857800    0.03349000
Se    3.47675000    4.69760000   13.31070000     -0.805012    0.25184200   -0.47605600
Se    3.46393000    9.58848000    4.30914000     -0.070993   -0.51854700    0.03665900
Se    5.47995000   12.16308000   15.26193000     -0.568534    0.16792900    0.50828200
Se    5.12686000   13.18156000    7.31817000      0.244864    0.93513800   -0.67792400
Se    4.14380000   17.74994000   18.31827000      0.100928    0.51410300   -0.36132900
Se    1.82279000   22.24349000    6.32188000     -0.226198    0.08672900    0.08890200
Se    5.27417000   22.06640000   13.61121000      0.222559    0.59508000    0.50983300
Se   10.92038000    2.76177000    6.26259000      0.281918   -0.10764500   -0.83978200
Se    9.55433000    4.01040000   16.20908000     -0.147911   -0.91868100   -0.26313900
Se   10.85304000   10.51394000    6.54368000      0.501228   -0.02433400    0.39035900
Se   10.51070000   12.38954000   14.83278000     -0.613770   -0.42216700    0.62501600
Se    8.83045000   15.02805000    9.18143000     -0.632420   -0.68664100    0.53838700
Se   11.83029000   18.30840000   16.14141000      0.189394    0.07349900    0.81491400
Se   10.11555000   20.12675000    4.23941000     -0.614621    0.82898600   -0.67043500
Se    7.80222000   20.38769000   17.09185000      1.268233    0.75576000    0.71349500
Se   14.46195000    3.89529000    5.64447000     -0.060394    0.62162300    0.02259700
Se   17.86353000    2.76697000   14.88535000      0.292328    0.54764300    0.69146700
Se   15.93104000    9.27749000    6.73290000     -0.571058   -1.45170300   -0.84383100
Se   17.66267000    9.84756000   12.22583000      0.303605    0.37335300    0.39156100
Se   17.45844000   12.77467000    5.29185000      0.314048   -0.35347200    0.86935400
Se   16.52344000   18.26290000   16.20823000      0.302938   -0.57037400   -1.33306800
Se   15.36585000    1.23023000    4.58763000      0.963166   -0.71293300   -0.86473900
Se   18.66799000    3.63544000   12.85593000     -0.386284    0.45420700   -0.15239400
Se    0.55057000    3.80044000    7.64939000     -0.883964   -0.14027800    0.14372300
Se   22.32058000    3.67402000   13.76948000      0.476824   -0.90142500    0.61812300
Se   19.79171000   13.08437000    8.57821000     -0.925561   -0.36654300   -0.99224800
Se   22.22828000   11.68899000   15.64442000     -0.187873   -0.20541300    0.44127900
Se   21.64962000   13.49553000    6.92986000     -0.034441   -0.16784600    0.31966800
Se   21.17789000   18.23419000   14.58241000     -0.207414    0.31387600   -0.12081800
Se   18.77390000   21.21101000    7.38446000      0.451272    0.77100900    0.07367500
Se   22.14249000   21.10491000   18.08819000      0.352079    0.25544600    0.99994400
Se    3.19647000    2.96102000    6.61822000      1.124533    0.53277700   -1.65555100
Se    6.32260000    1.07427000   16.57660000      1.208741   -0.69580000   -0.47517000
Se   22.44807000    4.18992000    0.46792000     -0.081604   -0.27375700    0.76761100
Se    4.69378000    9.66986000   11.30718000     -0.211946   -0.19041500   -0.27656000
Se    2.14089000   11.83648000    3.12513000     -0.307351    0.33969700   -0.09886400
Se    4.31368000   15.87058000   15.25718000     -0.790404   -1.36783500    1.25151400
Se    4.99055000   15.91081000    1.49098000      0.070141    0.28751500    1.12606200
Se    5.70061000   17.84685000   12.91123000      0.873684   -0.73670000   -1.14097100
Se   10.64158000    1.07385000    2.90253000     -0.649687   -0.46223200   -0.54591700
Se   11.86654000    1.42802000   13.88539000     -0.369604    0.41074200    0.36282700
Se   10.27122000    9.00416000    2.70062000     -0.119367   -0.19688300    0.40876500
Se    8.02517000    8.68554000   16.46442000     -0.482383   -0.07742100   -0.13573200
Se    9.28369000   12.38323000    3.51508000     -0.191256    0.52478500    0.58815100
Se    9.99209000   12.40951000   11.62749000     -0.246649   -0.20900200   -0.06595200
Se    8.77144000   21.25489000    2.42445000      0.602271   -0.45418400    0.16654500
Se   11.25682000   18.80141000   13.93558000     -0.220249    0.83541900   -0.47948000
Se   17.96272000    0.66523000    5.83738000      0.601781    0.52794500   -0.53020900
Se   14.38495000    2.55007000   12.84732000     -0.547235   -0.63330800    0.78795600
Se   15.94029000    6.54187000    3.67478000     -0.050202    0.22860000   -0.05066300
Se   15.39761000    5.37903000   14.90794000     -0.601192    0.47706700   -0.79034100
Se   14.51701000   13.19288000    2.79040000      0.126868   -0.19002900   -0.50019200
Se   17.14944000   16.31293000   14.64571000     -0.524948    0.47689100    0.53649400
Se   15.54169000   16.05520000    4.41258000      0.179575    0.53837200   -0.02222700
Se   17.07203000   20.20595000   14.48166000     -0.567690   -0.00799100   -0.50885500
Se   22.93340000    0.45799000    5.42306000     -0.549640    0.16990900    0.16603400
Se   20.85621000   22.99761000   12.49823000     -0.243373   -1.01346700   -0.04591200
Se   21.26769000    5.39575000    4.84898000      0.496455   -0.42803900   -0.14682400
Se   21.51334000    8.70056000   14.52102000     -0.389113    0.50853500   -0.31189900
Se    1.33935000   13.91954000    5.84660000      0.626098   -0.19847500    0.61698500
Se   21.88090000   14.38670000   16.45088000     -0.204081    0.14443300   -0.39266700
Se   21.89748000   19.20811000    5.13500000     -0.233991   -0.51815200    0.78237500
Se   21.18807000   19.39899000   10.36482000      0.352874   -0.33891600    0.21138600
Se    0.57875000    4.78268000    5.46866000     -0.225573   -0.01789800   -0.21553200
Se   21.71364000    6.02079000   14.40082000      0.298834   -0.07667600    0.31718600
Se   21.09031000    9.84976000    2.83812000      0.382798   -0.01464200   -0.56269800
Se    0.93821000   11.62795000   12.47869000      0.447685   -0.36363300   -0.21261700
Se    0.99468000   14.33672000    1.32276000     -0.046655   -0.53989300   -0.81844700
Se    0.41964000   21.13191000   12.13038000      0.654664   -0.92116000    0.53329900
Se    3.49006000    0.46923000    4.17852000      0.544959   -0.01060600    0.13458600
Se    3.95396000   18.63285000   14.12604000     -2.038497    1.14718300   -0.34419600
Se    9.61126000    6.25996000    6.89776000     -0.054669   -0.55116500    0.16909500
Se    7.37071000    4.08436000   12.88021000     -0.723054   -0.52130900    1.06481800
Se    5.75058000    6.51820000    3.99860000     -0.280159    0.31452500    0.69304200
Se    8.28804000   10.46534000   12.64662000      0.104513   -0.17459100    0.40527100
Se    8.29418000   17.43243000    3.34339000     -0.167097    0.09184800   -0.10490600
Se   12.19507000   14.99538000   13.74707000     -0.132862    0.01531400   -0.87642100
Se    6.18026000   20.82542000    6.16142000     -0.090571    0.10643400    0.68222600
Se    8.04932000   21.17455000   13.96233000     -0.538196    0.03181400   -0.16474500
Se   12.77248000    1.93576000    3.33306000      0.195174    0.82010500   -0.26099300
Se   11.14730000    3.32792000   11.96771000     -0.234654    0.35745900    1.01651900
Se   14.18502000   10.77525000    3.42241000     -0.511715    0.09415900    0.90532700
Se   11.80208000    9.41057000   12.90462000      0.597322    0.17278000    0.40877300
Se   11.85552000   15.08087000    2.96983000     -0.027815   -0.00237600    0.07285400
Se   14.64691000   17.74243000   12.29787000      0.174619   -0.84303400   -0.35674400
Se   13.52202000   19.35270000    1.62209000      0.294293    0.01763600   -0.54021700
Se   13.33115000   22.12302000   14.97357000      0.038136    0.45255900    0.07254800
Se   17.12017000    5.57013000    1.12392000     -0.129842   -0.21005300   -1.19653500
Se   16.38185000    6.81940000   12.44505000      0.647152    0.61404500    0.08026100
Se   17.65395000    8.17231000    3.54739000      0.457574    0.77924200    1.22464600
Se   21.03091000   12.79142000   12.84892000     -0.554661    0.01357200   -0.05979600
Se   22.11164000   15.52370000    3.89140000     -1.454833   -0.20052300   -0.34221000
Se   19.09530000   16.09864000   11.04575000      0.289664   -0.18750600    0.22974900
Se   18.90294000   21.26057000    4.11290000     -0.252478    0.34360000   -0.84239200
Se   17.04217000    0.43689000   11.70648000     -0.192625   -0.04512200   -0.11618800
