384
23.00800000 23.00800000 19.32000000
Ge    5.23263000    5.07946000   11.04287000     -0.608305    0.67731700    0.41864600
Ge    5.02197000    5.72165000    1.81308000     -1.733429   -0.74096600    0.18838600
Ge    1.19780000   11.80023000    8.03537000      0.375747    0.28841600    0.09232900
Ge    6.66827000   11.10764000   17.96234000     -0.291961    0.90867400   -0.63017100
Ge    4.26636000   15.01644000   10.10736000      0.348647   -0.46309500   -0.73424800
Ge    8.24294000   18.75630000    1.15919000      0.509003   -0.06604900   -0.47913800
Ge    9.05799000   20.41235000    9.50278000     -0.065553   -0.06028400   -0.35089600
Ge    4.53009000    1.68273000    0.01566000      0.569232   -0.40289900    0.28937300
Ge    8.60358000    5.16092000   11.12903000      0.843461    0.48735600   -0.10478300
Ge   11.89019000    5.24454000    0.64910000     -0.653366   -0.34072800   -0.14320500
Ge   10.95018000   11.43061000    9.09553000     -1.117492   -0.33908100   -0.44603700
Ge   10.73239000   12.30413000   17.56162000     -1.062599   -0.12264200   -0.73171800
Ge   10.22926000   16.75246000    8.08403000      0.006703    0.92262800    0.51670000
Ge   12.13105000   14.64507000    0.16043000     -0.198855    0.08476700    0.77662700
Ge   10.52913000    1.71362000   10.25395000     -0.711131   -0.55432900   -1.17656800
Ge   15.22374000   21.23530000    0.54193000     -0.236578    0.75284300    0.07887400
Ge   19.17484000    5.68149000   10.15555000      0.198686    0.18178800   -0.71661700
Ge   18.85024000    8.81908000   16.01724000      0.909820    1.08262100    0.04522200
Ge   21.04717000   14.00964000   10.52774000      0.620799    0.63091200    0.10183300
Ge   16.34236000   10.90351000   18.72472000     -0.616795    0.42245900   -0.27987700
Ge   13.97927000   16.42970000    8.65938000     -0.042474    0.09226700   -0.80216600
Ge   17.89274000   15.50676000    1.37660000      1.148521   -0.20705000    0.06375700
Ge   18.13278000    1.13017000    9.40150000     -0.076156   -0.71724600   -0.31630700
Ge   17.98391000    2.40305000    0.13995000     -0.460019   -0.90698300    0.30626800
Ge   22.70064000    5.35511000    9.96012000     -0.497116    0.01366000   -0.15864800
Ge   19.97604000    4.03096000    0.90736000      0.331740   -0.08924100    0.09714400
Ge    0.43353000    9.59629000    9.68293000      0.190193    0.77443000   -1.45189000
Ge    0.91691000   11.73981000   18.77663000      0.411440    0.45540000   -0.14950200
Ge   21.81850000   15.68463000    8.12572000     -0.677081    0.09381600    0.19584600
Ge    2.25741000   16.39513000   17.89864000     -0.662161   -0.78426200   -0.39696000
Ge   20.48155000   21.68350000    9.42976000      0.164891    0.32926200    0.57828400
Ge    1.22326000   22.12081000    0.39627000      0.111294   -0.28854500   -0.32054800
Ge    5.20980000    9.14932000    8.41024000      0.378937   -0.24189200    0.09617900
Ge    0.47890000    6.11878000   18.92299000      0.633604    1.46863400   -0.21263100
Ge    0.88759000    8.86381000    5.09084000      0.390946   -0.79710700    0.32393300
Ge    4.38053000   13.74494000   16.78601000      0.694893   -0.17730900   -0.38469000
Ge    4.43619000   18.40889000    2.90297000     -1.219016   -0.83112500   -0.62171100
Ge    1.91849000   19.53977000   18.40919000      0.012264   -0.25879900   -0.32384500
Ge    5.67285000   18.68720000   10.07880000     -0.468438    0.08926800   -0.69410600
Ge    4.01349000    0.03639000   16.94249000     -1.605854    2.55159800    0.46330700
Ge    9.05162000    3.75007000    7.53125000     -0.042032    0.79956200   -0.33072300
Ge    7.89339000    5.63586000   17.27286000     -0.137448    0.37535500    0.12541900
Ge    6.83163000   13.30301000    4.33015000     -0.153363   -0.83208100   -0.24705100
Ge    8.46751000    7.91686000    1.21634000     -0.537867   -0.13992300   -0.67443800
Ge    6.33928000   17.08096000    7.20354000     -0.440562   -0.31326000    0.09378300
Ge    8.86573000   16.17666000   16.82031000      0.138437   -0.53752500    0.70453900
Ge   10.68962000   22.80371000    5.09639000     -0.170210   -0.23987000    0.27526600
Ge   10.95852000   21.70069000   14.04885000      0.081427   -0.26017700    1.28655700
Ge   13.28504000    6.47103000    8.41947000     -0.352565   -0.47312300   -0.47749300
Ge   13.47013000    6.26456000   16.23197000      0.106120    1.31969900    0.65310100
Ge   13.63602000    9.99008000    7.51745000     -0.492875   -0.14697700   -0.24731400
Ge   15.44878000   12.97035000   15.90481000     -0.036761    0.31844300   -0.53197300
Ge   12.99738000   17.00838000    5.48437000      0.606954   -0.27820900    0.12204000
Ge   13.78014000   17.57502000   18.63860000      0.229443    1.06053200    0.73498900
Ge   13.72962000   22.35026000    8.55928000      0.453093    0.24690100   -0.10277300
Ge   15.83075000    1.55106000   14.61009000     -1.812216    0.80857800    0.26669400
Ge   20.42827000    3.47633000    6.49394000     -1.031678    0.69584900   -0.45252300
Ge   20.18350000    5.68364000   16.81517000      0.151813    0.46229300   -0.68521300
Ge   17.62544000   10.65951000    7.16529000      0.546715    1.75369200    0.78102400
Ge   20.01943000   13.30477000   17.52298000     -0.550496    1.72722500    0.70999900
Ge   18.14669000   16.25469000    5.49309000     -0.424859    0.28852500    0.79799400
Ge   18.31430000   20.58256000   18.01085000      0.225325    0.37593300   -0.64832900
Ge   21.69939000    1.29820000    7.57272000      0.400711    0.00613200   -0.04818900
Ge   19.27597000   22.00489000    0.76045000     -1.086473   -0.50191300   -0.03104400
Ge    5.63920000    2.86792000    7.79611000     -0.356270    0.39426100   -0.79202100
Ge    4.65086000    4.57701000   15.55696000     -0.317855   -0.20061100    0.58368200
Ge    3.20097000    6.91842000    3.87905000     -0.250328    0.37764500    0.80390700
Ge    2.92254000   10.11597000   12.91621000     -0.503084   -0.24950100    0.83601500
Ge    1.50079000   15.38439000    3.45263000      1.109984    0.73095400    0.65504600
Ge    1.03160000   19.07894000   14.83102000     -0.244671   -0.51418600   -1.10968500
Ge    2.40618000    1.37981000    8.03311000     -1.422238   -1.24377300    1.84740800
Ge    5.62115000   18.89741000   15.74504000      1.294201   -0.78384200    0.65131800
Ge    9.21716000    3.28272000    2.81932000     -0.496655    0.09135500    0.89169400
Ge    9.71974000    1.45099000   15.26057000      0.048143   -0.04105200    0.76298200
Ge    8.69629000    9.88188000    5.37511000     -0.247043   -0.70006000   -0.15335300
Ge   10.00700000    9.83804000   14.54705000     -0.391500    0.20866500   -0.30695800
Ge   10.66548000   14.24998000    4.86317000     -0.048083   -0.26597800    0.74425900
Ge   12.51260000   12.17823000   13.39188000      0.247731   -0.63587900    0.47628300
Ge    6.07891000   21.58777000    2.59249000      0.131032    0.15347900    0.46280900
Ge    8.98757000   18.65312000   15.71897000      0.414898    0.13170000   -0.22285100
Ge   13.62075000    1.39404000    6.42666000     -0.213069    0.11730800    0.26080800
Ge   11.72139000    4.36024000   15.21196000     -0.056187   -0.18419700    0.10610700
Ge   15.53672000    6.52235000    6.18389000      0.120789   -0.18341600    0.50675900
Ge   14.63827000    8.84267000   14.65118000     -0.001349    0.73563900    0.23299200
Ge   15.14461000   13.73509000    5.42974000     -0.109123    0.07596500   -0.10395800
Ge   14.58577000   16.43222000   14.69107000      0.656327    0.07841700   -0.81044300
Ge   11.59720000   17.84500000    3.36565000      0.008213    0.67253300   -1.23432800
Ge   10.36646000   21.57420000   17.11953000     -0.676841   -0.19853000   -0.53493200
Ge   17.95608000    5.06546000    3.70738000      0.611944   -0.69378100    0.11557000
Ge   20.65171000    2.25887000   12.52519000      0.773095    1.39070400    0.19274300
Ge   20.05889000    7.94326000    5.87118000     -0.029444    0.01011500    0.67114700
Ge   18.70595000   11.55970000   14.00007000     -0.463411    0.48727800   -0.64235900
Ge   21.33707000   15.13130000    1.47716000      0.403104    0.95493000   -0.15790600
Ge   19.91902000   15.10004000   13.19836000     -0.729933   -0.74397000    1.17781400
Ge   19.33888000   19.51087000    5.64625000     -0.248797   -0.20911700    0.22483100
Ge   22.64409000   21.12637000   15.65047000     -0.861529    1.30319900    0.11758700
Ge    5.60103000    2.41451000    4.15856000     -0.355972   -0.33597400   -0.97718900
Ge    5.23517000    1.59591000   14.31042000      1.071221    0.10230500   -0.33339500
Ge    5.82562000    9.09586000    4.14317000      0.495971    0.57267500   -0.10135500
Ge    6.62754000    8.35078000   12.51517000      0.340133   -0.18266700   -0.10834000
Ge    6.83680000   15.55734000    3.18936000     -1.203335   -0.31855500   -0.50862000
Ge    3.90588000   13.79492000   13.96038000      0.121229   -0.43922900   -1.13646600
Ge    5.43679000    0.48903000    6.37872000      0.073538   -0.54919400   -0.73178700
Ge    7.22401000   19.72304000   12.28924000      1.585327    0.61298500    0.58119300
Ge   12.21780000    4.18627000    4.56363000      0.127133   -1.68240800    0.83429600
Ge    7.91041000    1.45653000   13.01394000     -0.433825    0.99002800    0.78782900
Ge   11.60477000    8.83534000    0.79533000      0.083349    0.12696400   -0.91896800
Ge   11.82956000    6.24887000   13.04233000     -0.772688    0.74125400   -0.41852100
Ge    9.89048000   13.71106000    1.53710000      0.009743   -0.08163200   -0.27945700
Ge    8.76715000   14.65458000   11.80065000      0.248103    0.23571500    0.08930100
Ge   11.93381000   20.38606000   18.84602000      0.310203    0.17690300    1.36050500
Ge   12.07320000   19.97193000   10.59395000      0.356681   -0.54475000    1.39796800
Ge   21.67327000    0.89398000   17.82057000     -0.253707   -0.74663300   -0.44033400
Ge   14.59990000    5.30013000   12.21180000     -1.000023    0.99486500    0.39133100
Ge   17.28138000    8.32575000    1.17519000     -0.756211   -0.25570100   -0.77115500
Ge   14.85312000    9.40432000   10.15886000      0.130510    0.11027800   -0.06299900
Ge   16.62232000   11.85909000    3.09053000      0.520731   -0.17219700   -0.70120800
Ge   17.95583000   14.83955000    9.00189000      0.256792    0.38589800   -0.43698600
Ge   17.37188000   18.10077000    2.02767000      0.392314    0.83312100   -0.35282000
Ge   16.09162000   21.06547000   11.83291000      1.738701    0.21859000    1.51898000
Ge    0.27477000    1.98895000    1.39680000      0.112036    0.13512700    1.13656700
Ge   22.96634000    0.35437000   10.98902000      0.518609   -0.26926400    0.27124000
Ge   21.95790000    7.29669000    2.63216000     -0.272501    0.13129000    1.03210200
Ge   22.12010000    9.86883000   12.33136000      0.369906   -0.57605600    0.19251000
Ge   22.81960000   12.89687000    4.23221000     -0.427875   -0.01088900   -0.10412100
Ge    1.18711000   16.04141000   10.32354000      0.529026    0.50385300   -0.90592100
Ge    0.57960000   20.83204000    4.41066000      0.500311   -0.39124200   -0.26498400
Ge   20.97970000   17.41004000   12.01426000     -1.680034    2.63113100   -0.48090400
Se    1.15381000    1.52044000   18.54314000     -0.024097   -0.84553300   -0.36359500
Se    1.36682000    3.67994000   11.62412000      0.652355   -0.24312600    0.27555000
Se    1.19851000    7.66737000    1.91241000     -0.159015   -0.08618400   -0.61206400
Se    0.49595000    7.85288000   11.21037000     -0.064115   -0.05216200    1.09410200
Se    3.27417000   11.52580000    0.92666000     -0.935528    0.23190100   -0.77189000
Se    1.94974000   13.73818000    9.72120000     -0.667976   -0.55386000   -0.07471600
Se    2.05268000   18.38848000    3.55291000      0.007156    0.52138700    0.00739300
Se    1.93020000   18.63398000    9.62733000     -0.171471   -0.18303900   -0.13795100
Se    7.20576000    1.85391000    2.13844000     -0.579502   -0.05196000    0.48575500
Se    7.74726000    1.29278000   10.67744000     -0.402939   -0.24086100   -1.08180700
Se    7.15779000    5.39239000    1.27886000      2.085657   -0.52072100   -1.19599900
Se    9.49545000    7.15151000   12.17062000      0.846692   -0.15175400    0.07946100
Se    8.27488000   11.11374000    0.55614000     -0.334646   -0.17476600    0.56248600
Se    6.15681000   13.61540000   12.38834000      0.051773    0.25594400    0.84991100
Se    5.08847000   19.92330000    0.95731000     -0.042989   -0.35541600    0.44319400
Se    9.46493000   18.79053000   11.46077000     -0.349628   -0.20770000    0.00256300
Se   14.04230000    2.17852000    0.30374000      0.527053    0.08819100    0.54787400
Se   12.87534000    0.98594000   10.37389000      1.091882   -0.17296900    0.10752500
Se   10.22579000    7.07983000   18.43814000      0.490242   -0.72153300    1.17952300
Se    9.33823000    9.27780000    8.74012000     -1.177959    1.03607300   -0.04646900
Se   11.77398000   11.99910000    0.48508000      0.092523    0.97839700    0.35350700
Se   12.91956000   11.69193000   10.59509000      1.056610   -0.11886600   -0.02177100
Se   15.55923000   15.79604000    1.95014000     -1.759894   -0.18407600    0.75514900
Se   12.03487000   17.17927000    9.89565000     -0.999864    0.13148300    0.28276800
Se   16.60082000    3.23034000    2.47971000      0.237095    0.17133000   -0.32761600
Se   15.91725000    3.52244000   11.35461000      1.046604   -1.06397800   -0.72672800
Se   15.82082000    6.97785000   18.25837000      0.713152    0.03139500   -0.35715600
Se   20.49863000    5.96723000   12.22914000     -0.234980    0.45261200   -0.51632500
Se   18.52953000   10.11530000    0.02782000      0.442785   -0.02181000    0.21576200
Se   16.09850000   15.57983000    7.39438000      1.035719   -0.73688900   -0.68384300
Se   20.09779000   16.99868000    0.32317000      0.278396   -0.70149800    0.55753500
Se   18.37373000   20.09741000   11.08647000     -0.336604    0.06453900    0.21700600
Se    3.73484000    3.70443000    2.65424000      0.836434    1.03160400    0.08371000
Se    3.62481000    6.86676000   12.31490000      0.502875    0.00924000   -0.06753900
Se    6.33719000    9.94966000    1.53603000     -0.031647   -0.22026900    0.87714400
Se    4.92363000   12.53754000   10.76742000      0.115620    0.18018000   -0.59231100
Se    4.35392000   15.75374000    4.17360000      1.207776    0.07416500   -0.59155000
Se    3.09607000   15.99594000   12.00467000     -0.010960    0.14119100   -0.01655800
Se    2.76029000    1.19468000    1.92331000      0.222310   -0.81341400   -0.04282800
Se    6.70348000   21.11814000   10.35233000      0.050112    0.04094700   -0.24071300
Se   11.33106000    5.96476000    3.52818000     -0.305763    0.73206300   -0.84569200
Se    6.94825000    3.55495000    9.84535000      0.509975   -1.07287700   -0.78962900
Se   10.17752000    9.78061000   17.83649000      0.322146    0.34156800   -0.19073200
Se    7.10705000   10.69161000    9.29582000      1.626633   -0.32841000   -0.14134800
Se   10.77049000   17.77474000    0.94416000     -0.565563    0.20566600   -0.32461400
Se   11.51524000   14.84500000   11.30379000     -0.053860   -0.41006700    0.75791400
Se   12.99668000   22.65619000    0.78734000      0.437079   -0.13783600   -0.58856100
Se   10.97348000   21.96452000   11.66190000      0.066824    0.95817200   -1.16724600
Se   14.43375000    4.64898000    1.36063000     -0.829115   -0.53151300    0.22899300
Se   16.79844000    7.52043000    9.70207000     -0.053229   -0.98179100    0.76672000
Se   14.86520000    9.46981000    1.41462000      0.654273   -0.25117000   -0.77622600
Se   15.33093000   10.19445000   12.61586000      0.122671    0.41609300   -0.25899100
Se   18.69267000   13.90728000    3.16655000     -0.198148    0.32759800   -0.21046700
Se   14.56569000   12.62240000    9.12627000      0.648402    0.04295500   -0.29028000
Se   16.94029000   22.70550000    1.86171000      0.601023   -0.12157500   -1.03162400
Se   14.61638000   20.50614000   10.13829000     -1.102744   -0.16288500   -1.19873200
Se   20.92469000    0.76925000    1.60468000     -0.442814    0.48920500   -0.25978600
Se   21.89695000    2.78675000   10.48563000     -0.357719    0.62182300   -1.00972300
Se   19.84988000    6.60554000    1.08100000      0.128883    0.22594500   -0.49873300
Se   20.91656000   10.41262000   10.15249000      0.533906   -0.50808100    0.79896000
Se   20.32706000   13.14803000    0.65722000     -0.006227   -0.56087600   -0.11134600
Se   22.58330000   15.85432000   12.13068000      1.344116   -1.24253800    1.19063700
Se   22.48547000   21.92023000    2.30357000      0.541544   -0.12197900   -0.22096700
Se   20.02337000   20.07845000   15.70807000      0.438027    0.36071200   -0.27819200
Se    4.00970000    4.95617000    8.42021000      0.130284    0.85155900   -0.00352600
Se    1.33271000    6.18107000   16.48626000     -0.031747   -1.15444100    0.03421700
Se    3.70596000   11.09556000    8.22549000     -0.803805    0.30259600    0.05733600
Se    3.41071000    9.84648000   18.34166000      0.666583   -0.34049400    0.43832900
Se    4.68725000   19.30652000    7.42874000      0.050194   -0.61182200    0.34591700
Se    0.49547000   17.45253000   16.60098000     -0.131012    0.26730600    0.32174400
Se    2.64796000   21.88270000   11.76046000     -0.125772   -0.40071700   -0.18338200
Se    4.88957000   20.95476000   17.00046000      1.424720   -1.70288600    0.51284800
Se    7.11472000    3.69766000    5.81541000     -0.078506    0.29046800    0.53765000
Se    6.23312000    3.29591000   17.32240000     -0.625011    1.12529500    0.57313200
Se    6.46482000   10.71695000    6.18256000      0.058186   -0.23519800   -0.08125100
Se    4.82928000    6.28799000   17.51816000      0.031672    0.38149800   -0.39157800
Se    6.93651000   16.38591000   10.05907000     -1.192548    0.35396400   -0.54805400
Se    7.41872000   17.37196000   18.41091000     -0.115909   -0.35807100    0.13103500
Se    8.66172000   18.78153000    7.65334000      0.295109   -0.14945000    0.37205400
Se    6.17667000   22.24272000    0.11063000     -0.116399    0.95845500    0.32234800
Se   13.59692000    3.14411000    9.17095000      0.392305   -0.85135900   -0.19730800
Se   13.22741000    4.26283000   17.53855000     -0.911733    0.18043800   -0.25660000
Se   12.80031000    8.04458000   10.14656000     -0.380000   -0.37451800    0.20818700
Se   13.63960000   11.38555000   15.75673000     -0.284490   -0.82460500   -0.11345900
Se   13.13836000   14.51256000    6.96507000     -0.501862    0.84742100    0.32718800
Se   13.87027000   14.69063000   17.77296000      1.175540   -0.17295800   -0.88405800
Se   13.53531000   21.43337000    5.55655000     -1.771147   -0.39514300    1.40645900
Se   16.42357000   22.12852000   17.02471000      0.647293   -0.36061400    0.91202600
Se   18.01155000    3.51095000    9.49893000      0.572281    0.48201000   -0.57266200
Se   20.14383000    3.35411000   17.62240000     -0.499616    0.28158800   -0.13801900
Se   19.59447000    9.57820000    8.02819000     -0.668953   -0.52189500   -0.04161200
Se   16.79348000   10.26711000   15.83089000     -0.197862   -0.20706800   -0.12827100
Se   15.41569000   16.06728000   10.55998000     -0.004594    0.93462400    0.97098300
Se   17.94335000   14.84139000   16.96376000      0.948564   -0.22933900   -0.18456400
Se   17.58504000   19.83167000    8.87869000     -0.076525   -0.49042300   -0.01825000
Se   19.68192000   19.64964000    2.32382000     -0.613372    0.17980000    0.10986200
Se    4.46609000    0.20050000    8.59547000      0.755926   -0.49557000    0.75055000
Se    2.16148000    3.84320000   16.51388000      0.201037    1.10881900   -0.27344300
Se    6.75546000    7.01665000   10.20819000      0.440621   -0.02647000    0.29352900
Se    3.32011000    6.12091000    0.11665000      0.129816    0.26771500   -0.17242000
Se    4.03036000   15.60652000    7.32977000      0.409865   -0.25939300    0.20238700
Se    5.52217000   13.53461000   18.86763000      0.096050   -0.26384400    0.26997300
Se    3.65857000   20.34677000    9.86807000     -1.050433    0.33474100    0.11829900
Se    0.81872000   16.78741000    0.51063000      0.092853   -0.50390200   -0.00503400
Se    9.86861000   22.40603000    7.88805000     -0.568006   -0.04502200   -0.22057700
Se    9.80090000    3.56048000    0.54226000      0.993874    0.49443200   -0.80265600
Se   11.45372000    4.06660000    9.18410000     -0.714507    0.67386400    0.39997200
Se    6.28654000    8.33229000   18.33917000      0.504275    0.18325600    0.20108000
Se   10.90171000   13.91063000    8.37850000      0.742153   -0.31387800   -0.30188700
Se    8.36133000   13.28830000   17.85360000      0.927827    0.20116900   -0.10001600
Se   11.67226000   20.66810000    8.36172000     -0.303931   -0.09275700   -1.01246800
Se   11.49156000   14.89482000   17.04915000     -0.027446    0.01641100   -0.33051200
Se   15.69307000    0.89115000    7.90877000      0.951121   -0.22355200    0.62344200
Se   16.02037000    3.20975000   18.21914000     -0.376593   -0.66224100   -0.42451300
Se   15.57140000    5.40026000    9.01944000     -0.161026    1.34028800   -0.02918900
Se   13.83537000    8.15952000   18.41267000     -0.282179   -0.34665000   -0.75453100
Se   16.86311000   11.54020000    9.44123000     -0.218647    0.53261200   -0.17301000
Se   16.61534000   13.98374000   19.21526000      0.042153   -0.30601600   -0.56921100
Se   13.88327000   18.53015000    7.29414000      0.290878   -0.34395000    0.09054500
Se   16.47787000   19.13712000   18.99736000      0.150237   -1.29844400    1.05588600
Se    0.02107000   21.51997000    9.15668000     -0.544001    0.72045500   -0.81956000
Se   22.63536000    0.70247000   15.53523000     -0.013349   -0.76142600   -0.36228800
Se   20.68349000    5.85212000    8.11400000     -0.360195   -0.31630000    0.47589700
Se   21.17760000    7.47607000   18.40547000      0.182898   -0.27403100    0.16103700
Se   22.16408000    9.80731000    6.55434000      0.187027   -0.47580300    0.18290700
Se   20.37325000   11.07660000   17.13200000      1.209363   -1.62230400   -0.83264600
Se   19.49281000   16.97120000    7.79625000      0.580524   -0.90283800    0.01014900
Se   20.07971000   16.14790000   16.44995000     -0.296037    0.41792200   -0.00993800
Se    3.50367000    3.04448000   10.20629000     -0.913776   -0.46984200    0.36003100
Se    3.15050000    0.35915000   14.47702000     -0.378064   -0.25644700    0.12090800
Se    1.05685000    7.86732000    7.60699000      0.096405    0.77392000   -0.52904200
Se    1.32342000    9.61647000   17.34592000     -0.270699    0.33787700   -0.08403400
Se    0.66075000   16.55774000    6.82031000      0.069960    0.78573600   -0.25149200
Se    1.96865000   13.71893000   17.03801000     -0.317013   -0.01514400    0.43383300
Se    0.24010000   19.09320000    7.39383000      0.132671   -0.99486600   -0.24835600
Se    2.62667000   20.66052000   16.09647000     -1.412012   -0.23157700    0.70816800
Se    7.99231000   22.98410000    5.99485000      0.251840    0.26434400    0.09573500
Se   10.40322000    0.68838000   18.03527000     -0.171987    0.33866100   -0.58973900
Se    7.64056000    7.15923000    5.94530000      0.748568    0.34169100    0.57966500
Se    6.55840000    6.96035000   15.14938000      0.145609   -0.24837800   -0.03688600
Se    7.29504000   14.18543000    6.55180000      0.542613    0.31248700   -0.15348600
Se    8.90008000   16.78142000   13.74986000     -0.217405   -0.41211300    0.00402200
Se    6.16488000   18.99385000    4.44784000      0.794157    0.43751400    0.46734700
Se    7.04572000   15.91551000   15.18216000      0.491162    0.08566300   -0.61703400
Se   14.98645000   21.75544000    3.92948000      1.143052    1.02738400   -0.57978200
Se   14.22716000    1.35008000   16.45927000      0.391354   -0.45364200   -0.50294400
Se   13.28781000    7.58730000    5.84266000     -0.164396    0.14627600    1.10055800
Se   11.01437000    6.98374000   15.29524000      0.996288   -0.40930200    0.16194800
Se   13.20767000   11.78280000    5.67246000     -0.533273   -0.35013500   -0.04416400
Se   14.61550000   14.04480000   13.27579000      0.284202    0.60422500    1.01235600
Se   10.46024000   16.97956000    5.67511000     -0.582182   -0.34270400   -0.00686000
Se   13.63914000   19.94826000   17.11826000      0.139093   -0.43337200    0.07659100
Se   20.03584000    1.36498000    4.22672000     -0.738940    0.07691500    1.19255100
Se   18.89551000    0.33768000   17.35144000     -0.035563    0.25320800    0.56061200
Se   17.76689000    3.97268000    5.90588000      0.855457   -0.04367000    0.52421300
Se   17.95645000    6.68342000   16.14501000     -0.150196   -1.35963100    0.35096100
Se   20.22986000   10.35938000    4.95281000     -0.593361    0.61759400    0.40664600
Se   17.54571000   13.83081000   13.00459000     -0.086772   -0.68805100    0.59223600
Se   17.03793000   18.50580000    6.12879000      0.471754    0.00515800   -0.69472200
Se   17.41696000   22.89288000   14.29690000      0.788347   -2.02988300   -0.31270000
Se    4.08335000    7.15008000    7.08383000     -0.400393   -0.40014000   -0.04753800
Se    3.47559000    4.71149000   13.29656000     -0.971213   -0.27209200   -0.27505300
Se    3.49482000    9.63982000    4.30083000     -0.447337   -0.59820000   -0.02080900
Se    5.52328000   12.14318000   15.30565000     -0.687497    0.26292500    0.37767800
Se    5.13951000   13.21993000    7.27361000      0.026115    0.91893500   -0.50382400
Se    4.11691000   17.74886000   18.28530000      0.389995    0.66491600   -0.23165300
Se    1.84955000   22.18871000    6.27385000     -0.412558    0.18443200    0.14762300
Se    5.25791000   22.08075000   13.61912000      0.224995    0.75200200    0.56138100
Se   10.96490000    2.78432000    6.30542000      0.107135   -0.23774700   -0.86509100
Se    9.54698000    4.03022000   16.21762000      0.041195   -1.11582100   -0.35787200
Se   10.90916000   10.52333000    6.46546000      0.432667    0.09685000    0.65164400
Se   10.50995000   12.30797000   14.87213000     -0.944025   -0.27023700    0.57067600
Se    8.81953000   15.01661000    9.16919000     -0.730627   -0.36476200    0.50994500
Se   11.88311000   18.28482000   16.16925000      0.107135    0.25178400    0.35173400
Se   10.13033000   20.08471000    4.22469000     -0.630916    0.95550500   -0.62953200
Se    7.84959000   20.41408000   17.16544000      1.018467    0.70196300    0.52973100
Se   14.39488000    3.93465000    5.58847000      0.328538    0.53598800    0.25702200
Se   17.91471000    2.75589000   14.86002000      0.319019    0.56136900    0.98930800
Se   15.90208000    9.28306000    6.73651000     -0.621064   -1.59077800   -0.91527800
Se   17.66635000    9.86033000   12.27282000      0.439060    0.29970400    0.29420500
Se   17.48517000   12.71528000    5.34097000      0.544597   -0.33513200    0.77661500
Se   16.53039000   18.27266000   16.21726000      0.381350   -0.55971500   -1.36737400
Se   15.33464000    1.18652000    4.61816000      1.151545   -0.62149900   -1.06990700
Se   18.66982000    3.61259000   12.84498000     -0.144252    0.46814900   -0.41724000
Se    0.51497000    3.81525000    7.64347000     -0.804467   -0.20694800    0.17333100
Se   22.36782000    3.67422000   13.76865000      0.266263   -0.78920000    0.57686500
Se   19.80188000   13.09063000    8.56379000     -1.116307   -0.45249200   -0.69013000
Se   22.28980000   11.67412000   15.66121000     -0.449269   -0.11312300    0.50787000
Se   21.57424000   13.47604000    6.91596000      0.261029    0.26818400    0.40919600
Se   21.10874000   18.26500000   14.57969000      0.017655   -0.11065000   -0.10603000
Se   18.82434000   21.21513000    7.37985000      0.311201    0.39652800    0.07487000
Se   22.19732000   21.12353000   18.06499000      0.304622    0.21501500    0.95462800
Se    3.18574000    2.91605000    6.58383000      1.408990    1.24502400   -2.17940200
Se    6.29103000    1.08085000   16.67539000      1.093503   -0.98047600   -0.99376500
Se   22.48622000    4.13255000    0.44582000     -0.153101    0.15922600    0.64574400
Se    4.72186000    9.64531000   11.33458000     -0.212234    0.07739600   -0.49044800
Se    2.06905000   11.83720000    3.12792000     -0.212413    0.39508700   -0.34269200
Se    4.26784000   15.88367000   15.24763000     -0.556105   -1.15705700    1.30710300
Se    4.92493000   15.93842000    1.46604000      0.334256    0.27766900    1.43183600
Se    5.72180000   17.87045000   12.89322000      0.395456   -0.34263400   -0.62542300
Se   10.66451000    1.07432000    2.83758000     -0.292671   -0.44635300   -0.11006100
Se   11.87460000    1.41240000   13.86750000     -0.522937    0.41588600    0.35726700
Se   10.24226000    9.01757000    2.69959000     -0.207544   -0.18161000    0.59839600
Se    8.02393000    8.70418000   16.46041000     -0.441402   -0.01650300   -0.23832200
Se    9.27069000   12.38616000    3.54226000     -0.126747    0.26186600    0.70856800
Se    9.95297000   12.40738000   11.65035000     -0.037974   -0.23361900   -0.18570600
Se    8.75281000   21.19457000    2.42602000      0.680003   -0.40241300    0.16177700
Se   11.28101000   18.82487000   13.90780000     -0.197975    0.64000400    0.11180900
Se   17.99418000    0.73033000    5.89149000      0.701870    0.38211600   -0.56025000
Se   14.45293000    2.54338000   12.86985000     -1.022867   -0.93872400    1.03258800
Se   15.94175000    6.56954000    3.69030000     -0.437519    0.25908800   -0.19754500
Se   15.35317000    5.32685000   14.89517000     -0.306368    0.43435700   -0.75873000
Se   14.52067000   13.25683000    2.79477000      0.299979   -0.64131500   -0.36550500
Se   17.20526000   16.32609000   14.62198000     -0.594313    0.51126600    0.54315600
Se   15.57177000   16.01117000    4.43953000      0.124742    0.54352000   -0.06431400
Se   17.05500000   20.23435000   14.49665000     -0.677148   -0.02684400   -0.46979800
Se   22.91626000    0.46134000    5.47124000     -0.511997    0.00500200   -0.04866400
Se   20.85965000   22.99308000   12.48389000     -0.276595   -0.82246300   -0.08127600
Se   21.23284000    5.38096000    4.87310000      0.691300   -0.46010400   -0.18329100
Se   21.47180000    8.69579000   14.50959000     -0.355364    0.47399300   -0.27809700
Se    1.34703000   13.89924000    5.91616000      0.107969   -0.39012600   -0.00705000
Se   21.86220000   14.39025000   16.43494000     -0.289486   -0.04816900   -0.25724600
Se   21.88522000   19.16716000    5.14868000      0.114244   -0.08583000    0.59851000
Se   21.20085000   19.40431000   10.33303000      0.290344   -0.38866600    0.34988800
Se    0.57611000    4.82292000    5.49350000     -0.377970    0.01547900   -0.30015900
Se   21.68438000    6.01309000   14.44313000      0.320589   -0.13243300    0.10154300
Se   21.07513000    9.87136000    2.91658000      0.695664   -0.23563600   -1.41323400
Se    0.89772000   11.65982000   12.48730000      0.475692   -0.55914400   -0.17734800
Se    1.02773000   14.31978000    1.28841000     -0.259971   -0.20782200   -0.50530800
Se    0.43938000   21.14784000   12.15261000      0.841595   -0.82631000    0.56798400
Se    3.48608000    0.46354000    4.14579000      0.620524   -0.10128000    0.29474900
Se    3.90238000   18.64634000   14.14578000     -1.322215    0.78236800   -0.82155600
Se    9.61573000    6.25650000    6.95839000     -0.379212   -0.28833300    0.00143000
Se    7.35304000    4.07938000   12.89008000     -0.657342   -0.31846700    1.05047100
Se    5.77842000    6.48329000    4.00253000     -0.329643    0.44002700    0.57293300
Se    8.29069000   10.45808000   12.70144000     -0.074878   -0.13430900    0.25434200
Se    8.28851000   17.43122000    3.34899000     -0.159618    0.18634000   -0.06033200
Se   12.20003000   14.97929000   13.78352000     -0.045840   -0.04779700   -0.99820700
Se    6.23425000   20.88184000    6.21903000     -0.071532    0.10676600    0.43082600
Se    8.04122000   21.24846000   13.97410000     -0.526666   -0.15989900   -0.29456900
Se   12.78419000    1.98993000    3.40453000     -0.157402    0.35838100   -0.55972000
Se   11.07933000    3.25354000   11.96303000     -0.080124    0.68622700    1.39839500
Se   14.12332000   10.72456000    3.43837000     -0.195758    0.41430200    0.56941200
Se   11.81291000    9.35916000   12.89734000      0.632015    0.19616100    0.41000400
Se   11.90648000   15.11391000    2.97339000     -0.149169   -0.12204300    0.02878700
Se   14.65534000   17.77581000   12.31191000      0.211592   -0.91601000   -0.42900700
Se   13.51935000   19.29876000    1.63098000      0.228680    0.11043700   -0.60582200
Se   13.35146000   22.16260000   15.02553000      0.119604    0.50279100    0.08240200
Se   17.14457000    5.58189000    1.14225000     -0.162949   -0.14553900   -1.17973700
Se   16.46003000    6.77739000   12.51771000      0.228590    0.53035500    0.09906700
Se   17.65982000    8.19908000    3.55892000      0.519650    0.73942900    1.43464300
Se   21.04600000   12.82159000   12.81075000     -0.604099   -0.05620000    0.10566100
Se   22.11126000   15.52667000    3.88749000     -1.254281   -0.13796400   -0.12808700
Se   19.08328000   16.04045000   11.00858000      0.307595    0.03753000    0.02946500
Se   18.95925000   21.29998000    4.10664000     -0.071019   -0.17288000   -0.73068400
Se   16.97524000    0.48102000   11.64849000     -0.126975   -0.25114000   -0.11325500
