384
23.00800000 23.00800000 19.32000000
Ge    4.96560000    5.29247000   11.53797000      0.400219   -0.64562800   -0.58988700
Ge    5.60349000    5.29791000    2.08322000      0.222161   -0.26579800    0.30836600
Ge    1.14975000   12.34330000    7.64040000     -0.166457   -0.16985900    0.37762700
Ge    7.16747000   12.00795000   17.34982000     -0.037491   -1.02618500    0.00336700
Ge    4.82242000   14.99339000    9.98919000     -0.412439   -0.86431900   -1.03817500
Ge    8.01776000   19.04531000    0.64727000      0.069594   -0.31184000   -0.71076700
Ge    9.21684000   20.88438000    9.35276000     -0.391013   -0.49545500    0.06926300
Ge    4.57349000    1.30260000    0.68481000     -0.088195   -0.31571600    0.30086400
Ge    9.13469000    5.34419000   11.29062000     -0.483327    0.48963700    0.48976200
Ge   11.95115000    4.74598000    0.82696000     -1.029706    0.61267500   -0.52812000
Ge   10.90700000   10.55190000    9.88736000      0.339248   -0.50538900   -0.09587800
Ge   10.77942000   12.97665000   17.30988000      0.090865   -0.18549000    0.80152200
Ge   10.13343000   17.04816000    8.49493000     -0.259399    0.35492300    0.83887500
Ge   13.31187000   15.05586000    0.28291000     -1.049576   -0.80594500   -0.98800100
Ge   10.41181000    1.23936000   10.36352000      0.285697   -0.27443100    0.43752900
Ge   14.98597000   22.01429000    0.11850000      0.523014   -0.39831400    0.28085900
Ge   18.88057000    5.85412000   10.04694000      0.281873    0.05788400    0.16597600
Ge   18.75657000    8.73750000   16.40476000      0.402965   -0.30698200    0.58257500
Ge   21.78265000   14.50030000   10.87012000     -2.558461   -0.03028400    0.10860800
Ge   15.91125000   11.06165000   18.42648000     -0.599455   -0.65231600    0.43980100
Ge   14.05638000   17.26494000    9.10890000      0.627604   -0.55510700   -1.17351800
Ge   18.02961000   16.22883000    0.91352000      0.007852   -0.11102400   -0.05583700
Ge   18.29717000    1.01111000    9.18072000     -0.040046    0.54644000    0.51048800
Ge   18.12417000    1.94060000   18.78632000      0.392968    0.03666500    0.23838700
Ge   22.99629000    5.44487000    9.17145000      0.664765   -0.19729300    0.86647100
Ge   19.97283000    4.67914000    1.67848000      0.434708    0.05733600   -0.27453900
Ge    0.15219000    9.80889000    9.08770000      0.020305   -0.12328500   -0.08715200
Ge    0.42668000   12.21169000   18.41711000     -0.102487   -1.22354200    0.47379400
Ge   21.90336000   15.59977000    8.37316000     -0.529711    0.93299700   -0.11928100
Ge    2.52689000   16.22654000   17.37154000     -1.083403    0.82383100    0.25419300
Ge   20.62506000   22.32100000   10.23301000     -0.428442   -0.69897900   -1.94508100
Ge    1.34277000   21.52787000    0.20679000     -0.490905    0.20315400    0.69238300
Ge    5.34036000    9.35465000    8.96003000      0.498842    0.21421100   -0.03878300
Ge    0.94233000    6.70482000   18.98257000     -0.705096   -0.42877300    0.09525300
Ge    0.94045000    8.50266000    5.15452000      1.401117   -0.65517200    0.07208500
Ge    4.31636000   13.31079000   16.92541000      1.318978   -0.21453900   -0.08308100
Ge    4.48544000   18.45797000    3.32845000      0.753764   -0.53617000   -0.07862200
Ge    1.65283000   18.75743000   18.65701000     -0.573610    0.75551400    0.23563300
Ge    4.82862000   18.96271000    9.99987000      0.352159    0.31212000    0.01791800
Ge    4.32296000    0.74729000   16.66258000     -1.463759    0.75928700    0.18169400
Ge    9.29478000    3.80742000    7.25892000     -0.326896    0.32483400   -0.20967500
Ge    7.38610000    6.19875000   17.10572000     -0.310694    0.39601100   -0.61696500
Ge    6.69771000   12.58488000    4.58245000     -0.343663    0.26936700   -0.14860900
Ge    8.59882000    8.10584000    0.92455000     -0.217825   -1.08608400    0.19560800
Ge    6.38125000   16.71913000    6.82285000     -0.421903    0.84805400    0.41125700
Ge    9.37367000   16.00518000   16.81429000     -0.309538    1.46579000   -0.52213100
Ge   10.85034000   22.45549000    5.49699000     -0.511392    0.24581000   -1.24940200
Ge   10.76899000   21.56550000   14.45335000     -0.420407    0.56834900    0.09986500
Ge   11.98485000    6.27791000    8.14575000      0.957171    0.15198300   -0.12332100
Ge   13.64415000    5.92124000   16.24413000      0.207788    1.29246600    0.77327500
Ge   14.28800000    9.52406000    7.21212000     -1.252444    0.13128400    0.66875400
Ge   15.81874000   12.62886000   15.55142000     -0.124540    0.00203700    0.65485600
Ge   12.59751000   16.72995000    5.27298000     -0.116874    0.89770500    0.80662200
Ge   14.00306000   18.14668000   19.15860000      0.503794    0.92164100    0.32030200
Ge   13.74505000   22.40763000    8.55890000      0.488759   -0.62509100    0.01165100
Ge   15.72940000    1.32392000   14.19455000     -0.153746    0.15823800    0.50131900
Ge   20.61930000    3.65781000    6.17050000     -1.799691    0.13067900    0.49375800
Ge   20.74742000    5.30628000   16.63665000      0.032515    0.98179500    0.03384200
Ge   17.62967000   11.38759000    7.23999000     -0.071242    0.48257600   -0.61012900
Ge   20.41304000   13.43606000   17.87780000     -0.407841    0.04032800    1.02159600
Ge   18.52530000   15.92733000    5.95580000      0.008078    0.40648300    0.72013000
Ge   18.72742000   20.02747000   17.46363000     -1.209298   -0.02247300    0.88100900
Ge   21.64125000    1.55876000    7.36256000     -0.762763   -1.40399700    0.05450300
Ge   18.73226000   21.16642000    0.48389000      0.063595    0.25166500    0.06404700
Ge    5.71068000    3.23854000    7.66242000     -0.689282    0.51560400   -0.25010000
Ge    5.22722000    3.85957000   15.27778000     -0.314142    1.97859300   -0.36520900
Ge    2.76154000    6.49325000    3.83064000     -0.473971    2.09521500    0.53926800
Ge    3.13633000    9.79246000   14.02286000      0.200034    0.01401800    0.35614600
Ge    1.14071000   16.15649000    3.98505000     -0.689797   -0.39648500   -0.07191600
Ge    1.21583000   18.52461000   13.68883000      0.171417   -0.37125700    0.62597100
Ge    2.31614000    1.24596000    8.77040000      0.579171    0.53969500   -0.54894400
Ge    5.85260000   18.89789000   15.75568000      0.250560   -0.26369000    0.83834700
Ge    8.75591000    3.63483000    3.29049000      0.120590   -0.59371400    0.05054100
Ge    9.27873000    1.47347000   15.61946000      0.884792   -0.19246700    0.15428100
Ge    8.74896000    9.26153000    4.94810000      0.434330    0.31665200   -0.03898500
Ge   10.19510000   10.35740000   14.78703000     -0.180982   -0.31647500    0.01437900
Ge    9.91734000   14.32146000    5.32478000      1.564196   -0.41873200   -0.17661400
Ge   12.82462000   12.10058000   14.09684000      0.150648   -0.64927100    0.48865100
Ge    6.60507000   21.63725000    2.90472000      0.179373   -0.10916100   -0.27047400
Ge    8.81934000   18.77775000   15.15855000      0.311699   -0.48482500    1.09000700
Ge   13.84371000    1.52501000    6.45021000      0.494106   -0.28949000   -0.14721900
Ge   11.60868000    3.94759000   15.06418000      0.246546    0.25767700   -0.40983800
Ge   15.42541000    6.75382000    6.04030000     -0.349228   -0.49149900    0.21529800
Ge   14.72792000    8.92693000   14.59545000     -0.417369    0.68000700    0.35481900
Ge   14.92654000   14.18581000    4.70590000     -0.131770   -0.06339600    0.39230900
Ge   14.10479000   16.53801000   14.43244000      0.082050   -0.30258600    0.00375800
Ge   11.67862000   18.80404000    2.88659000      0.146660   -0.10039400   -0.11452200
Ge   10.46931000   21.49491000   17.07815000     -2.148597    0.22808900   -0.18394700
Ge   18.36160000    4.15191000    3.87328000      0.092804    0.92660500    0.34155100
Ge   20.91521000    2.66626000   12.53467000     -0.274101    0.36513100    0.52171500
Ge   20.18825000    7.81018000    6.31316000     -1.135671   -1.18701600   -0.61649600
Ge   18.56669000   11.44094000   13.74998000      0.312784    0.04112500    0.26442600
Ge   21.81377000   14.46443000    1.51278000     -1.320365    2.01484500    0.86451900
Ge   20.14143000   14.66784000   14.03722000     -0.593373    0.18902900   -0.20651700
Ge   19.39088000   20.08683000    5.95720000     -0.612412   -0.82999900   -0.71811200
Ge   22.46929000   21.06511000   16.29546000     -0.416143    0.30998400   -0.31956900
Ge    5.21723000    2.65778000    4.33428000     -0.491470   -0.26299300   -0.05935000
Ge    5.24581000    1.91251000   13.77683000      0.898082   -0.66158800   -1.94872000
Ge    5.99664000    9.39647000    4.37393000     -0.617040   -0.44062200   -1.02640600
Ge    6.79230000    8.27969000   12.03649000     -0.437751   -1.06241000   -0.47040700
Ge    7.20166000   15.10174000    3.08572000     -0.200338    0.60849400   -0.75842600
Ge    3.68839000   13.24521000   12.85048000     -0.074830    0.05525000    0.53765900
Ge    5.69731000   22.86422000    6.77002000     -0.308922    0.45287400   -0.98020900
Ge    7.53520000   19.12229000   12.11870000      0.056003    0.18829200   -1.40627200
Ge   12.66473000    3.67202000    4.44141000      0.370905   -1.44290400    1.43089200
Ge    8.36276000    1.73302000   12.57922000      0.087962    0.24654300    0.54632200
Ge   11.71274000    9.19649000    0.39075000     -0.117644   -0.58409000   -0.38141700
Ge   11.86384000    6.68443000   12.88315000     -0.413036    0.15496300   -0.77476100
Ge    9.70309000   14.19185000    1.65248000     -0.252022    0.42273900    0.21069900
Ge    8.63446000   14.18946000   11.65651000     -0.210685    0.69786200    0.39969000
Ge   11.55739000   20.52870000   19.02723000      0.553022    0.14422700    1.22618600
Ge   12.34761000   20.15798000   11.09403000     -1.482749   -0.51068300    0.77087400
Ge   21.58462000    0.51838000   18.24024000      0.054785    0.26549800   -0.21381700
Ge   13.84061000    5.85517000   11.14647000      0.155449   -0.35859300   -0.11392500
Ge   16.90186000    8.03158000    0.89849000      0.231229    0.22036800   -0.03017400
Ge   14.21596000    9.59610000   10.10815000      0.411039   -0.30139300   -0.27343600
Ge   17.22514000   11.86832000    2.58601000      0.326066   -0.47304000   -0.14127400
Ge   18.24755000   15.18502000    9.26844000      0.272157    0.70629300   -0.39506700
Ge   16.76415000   18.04895000    2.48841000      0.227852    0.19812200   -0.53959600
Ge   16.63786000   21.14055000   11.79824000      0.871925    0.07086200    0.91885500
Ge    0.26663000    2.27290000    1.97219000     -0.229840   -0.71529100   -0.11107300
Ge    0.16414000    0.38706000   11.37863000      0.604730    0.60131100   -0.59277500
Ge   22.09270000    7.82968000    3.04555000     -0.493083   -0.44973000   -0.04536400
Ge   22.52197000    9.61460000   12.28933000      0.856092   -0.47870800    0.10186000
Ge    0.22339000   12.59484000    3.62976000     -0.112543    0.24132800    0.72623400
Ge    1.16541000   15.79379000   10.43979000      0.318957    0.34677400   -0.68196100
Ge    0.66897000   20.75075000    4.38570000     -1.076052   -0.01676600   -0.44098900
Ge   20.84703000   17.97204000   12.03722000     -0.110363    0.09415000    0.18981100
Se    1.15193000    1.00912000   19.06919000     -0.269468    0.51523800   -0.32041200
Se    1.44214000    3.51491000   12.03079000      0.365886   -0.53502500   -0.69484800
Se    0.81901000    8.36853000    1.54037000      0.692322   -0.29582000    0.00917100
Se    0.92700000    8.13823000   10.79154000     -0.295418   -0.01293000    0.17132200
Se    2.67405000   11.99246000    0.71697000      0.133115   -0.73299300    0.11249900
Se    0.60001000   13.22323000   10.30986000      1.929031   -1.00087700   -0.70308800
Se    1.81064000   18.62369000    4.46395000      0.546593    0.05343700   -0.29582000
Se    2.06054000   18.11175000    9.52721000     -0.243063    0.69201900   -0.21791600
Se    6.86262000    1.45020000    2.87531000      0.327350    0.74988300    0.06042100
Se    7.59640000    0.71337000   10.43356000     -0.163509    0.84073300   -0.16319500
Se    7.96369000    4.46980000    1.11635000     -0.422411    0.33504600   -0.19834700
Se    9.39578000    7.64604000   12.49876000      0.641723   -0.79304000   -0.03737300
Se    7.87879000   10.51650000    0.81721000      1.133121    1.34000600   -0.79550900
Se    6.37258000   13.65157000   12.67646000     -0.334779   -0.18590700   -0.13503200
Se    5.56819000   19.87254000    1.33102000     -0.437344   -0.03315900   -0.23521600
Se    9.58618000   18.39539000   11.14671000     -0.332448    0.47560600    0.42600300
Se   14.21064000    1.98235000    0.52822000     -0.169104    0.23701300    0.01777900
Se   13.27946000    1.01115000   10.28484000     -0.995010    0.98383600    0.27079700
Se   10.47037000    6.80151000   19.04805000      0.590456    0.31002200   -0.37979700
Se    8.95212000    9.04109000    8.68760000     -0.284237    0.71868800    0.44544200
Se   11.49811000   13.02930000    0.63188000      0.767281   -0.53820500    0.13176200
Se   13.55298000   12.09099000   10.40067000     -0.560543   -0.00657000   -0.74198000
Se   14.31772000   16.57200000    1.95055000      0.234328   -0.16675700    0.66642400
Se   12.13240000   17.33099000   10.46869000      0.024695    0.10158700    0.32285900
Se   16.99030000    3.12843000    2.05565000     -0.073663    0.16188400   -0.05152200
Se   15.69747000    3.39038000   11.43525000      0.492826    0.62275400   -0.35154100
Se   16.49837000    6.91968000   17.52470000     -0.974004    0.05992500    0.92732200
Se   19.59998000    6.05842000   12.78845000      0.259705   -0.54411500   -0.04190800
Se   18.07651000   10.09803000   19.03748000      1.331735   -0.70403200    0.38859800
Se   16.50321000   15.16929000    7.35650000      0.133682    0.49484300    0.06142200
Se   20.36874000   16.42915000    0.37358000      0.845064    0.19845100    0.61998500
Se   19.02857000   20.12636000   10.67179000      0.002686   -0.26738600    0.71969100
Se    3.47628000    4.30942000    3.48091000      0.293825   -2.08604200   -1.26783500
Se    3.83573000    7.33642000   12.30099000     -1.049830   -0.71811400    0.39606300
Se    5.95259000    9.76810000    1.71995000     -1.263790   -0.27875700    1.25434800
Se    5.22860000   12.43051000   10.76854000     -0.381732    0.99709300    0.17709900
Se    5.00685000   15.77182000    3.94179000     -0.946620    0.25094200    0.07381500
Se    3.29116000   15.69122000   11.69646000     -0.034124   -0.00187500    1.05971300
Se    2.96265000    0.13175000    2.27460000      0.363129    0.36902400   -0.26629900
Se    6.45745000   20.78649000   10.71096000     -0.010158   -0.14253900   -0.44711400
Se   11.89938000    5.48185000    3.41309000     -1.120127    2.31838100   -0.94170500
Se    7.15811000    3.07172000    9.74546000      0.255471   -0.17863400    0.45080900
Se   10.07402000   10.47438000   17.75197000      0.155112    0.03267500   -0.26130500
Se    7.15242000   11.35029000    9.57481000      0.201541   -1.42725800   -0.54070300
Se   10.69515000   18.33841000    0.48609000      0.363513   -0.19063500    0.33235700
Se   11.50668000   14.27314000   11.22923000      0.198631    0.20341300    0.84273900
Se   12.67781000   22.97572000   18.86993000     -0.256583    0.46077200    0.23682400
Se   10.36704000   22.02402000   12.02224000     -0.408686    0.66063800   -1.01740100
Se   14.11022000    4.29858000    1.82898000      1.033642   -0.27555400   -0.22492400
Se   16.68856000    7.51027000    9.43628000     -0.337968   -0.59827300   -0.06220200
Se   14.76357000    9.38481000    1.04939000      0.074116    0.34055200   -0.13376900
Se   15.73731000   10.71235000   12.69979000      0.204320   -0.53899100    0.23063100
Se   18.20866000   14.24992000    2.60028000      0.358474   -0.16615700    0.46700400
Se   14.88993000   12.26039000    8.19852000     -1.095046    0.82254500    0.63099900
Se   17.04096000   22.69511000    1.50382000     -0.011855   -0.23121200   -0.34933800
Se   14.55976000   20.79121000   10.45324000      0.680239    0.33998000   -0.74636600
Se   20.56330000    0.87037000    1.29461000      0.411649    0.28290800   -0.14551500
Se   21.61356000    3.12529000   10.22938000      0.477596   -0.23073700   -0.01268800
Se   20.11220000    7.27000000    1.08469000     -0.422302   -0.41234600    0.92852000
Se   21.02329000    9.97468000   10.51266000     -0.517479    0.43516500   -0.49082100
Se   21.09441000   12.27494000    0.97408000     -1.059653    0.49284300   -1.11980900
Se   22.70707000   16.19619000   12.54983000      0.688388    0.35573400    0.10638000
Se   22.54397000   22.09727000    2.40898000      0.268259   -0.44250900    0.39441700
Se   20.09071000   20.21818000   15.40266000      0.489011    0.77439400   -0.67166200
Se    4.25637000    5.32922000    8.57061000      0.243506   -0.11188600   -0.36735800
Se    1.02667000    5.11046000   16.38977000      0.203703   -0.51000200   -0.11748600
Se    3.68188000   11.88258000    8.35224000     -0.241178   -0.80908500    0.18990600
Se    3.24319000    9.74770000   19.21325000     -0.106098    0.25340600   -0.40359100
Se    4.40545000   18.99411000    7.49133000      0.039412   -0.17156700   -0.58220900
Se    0.57773000   17.77531000   16.67214000      0.146439   -0.97326000   -0.42574100
Se    2.52452000   21.69127000   11.79792000     -0.024669   -0.43837600   -0.46809100
Se    4.21975000   21.42754000   17.08916000      1.654951   -1.03438800    0.80082900
Se    6.69155000    4.19633000    5.35686000      0.502251    0.79242800    0.85403900
Se    6.18059000    3.02248000   17.31322000      0.451645    2.23432500    2.32148600
Se    6.61862000   10.63565000    6.44720000      0.337923    0.51116600    0.46414500
Se    4.67455000    6.26517000   17.63416000      0.750289    0.31259300   -0.79897300
Se    6.61443000   16.46468000    9.58205000      0.531149    0.69435000   -0.18910200
Se    7.46921000   16.93379000   18.58274000      0.362936    0.41342800   -0.05918100
Se    8.37292000   18.82338000    7.85850000      0.424883   -0.17242900    0.25521100
Se    6.23647000   22.46881000    0.44455000      0.068335   -0.03191800   -0.16314200
Se   13.29762000    2.73793000    8.49176000     -0.197159    0.29286300    1.22116800
Se   12.62056000    4.06471000   17.40793000      0.521794   -0.17335200    0.33080000
Se   12.17693000    7.90145000   10.09264000     -0.240861    0.50143900   -0.31071700
Se   13.43442000   11.41106000   16.50320000      0.091374    0.06995200   -1.19065700
Se   13.16235000   15.12430000    7.49728000     -0.454299   -0.24221200   -0.34749500
Se   14.61933000   13.85262000   17.90300000      0.529365    0.54486700    0.51615200
Se   13.17158000   21.48285000    5.87648000      0.727647   -0.29533000   -0.61052700
Se   16.66607000   21.79132000   17.36502000      0.102334   -0.34925500   -0.49441500
Se   18.05285000    3.62108000    9.54598000     -0.234532   -0.07245700   -0.24760800
Se   19.98187000    3.11904000   16.93740000     -0.185865   -0.99506200    0.62168200
Se   19.20407000    9.63050000    7.69540000      0.769115   -0.22680000    0.97228500
Se   16.63680000    9.94425000   16.14709000     -0.460948   -0.16824100   -1.11193500
Se   15.92998000   16.34898000   10.54573000     -0.829358    0.76222000   -0.12465000
Se   18.37781000   14.93683000   17.52300000     -1.468749   -1.78521600    0.78918200
Se   17.22205000   20.43411000    9.07429000     -0.547095   -0.49358500    0.05166200
Se   19.46680000   19.72921000    2.38540000      0.244620   -0.32903600   -0.39218500
Se    4.83196000    0.45426000    8.93204000     -0.217491   -0.23055900    0.25971200
Se    3.18537000    3.69069000   16.58641000     -1.319282    0.37436600    0.79496700
Se    7.12614000    6.99222000    9.66898000     -0.626284    0.52923700    1.02836100
Se    4.17128000    6.45554000    0.54401000     -1.050763    0.48498600    0.57518800
Se    3.64952000   15.29046000    7.81466000      0.693141   -0.26030700    0.11949500
Se    5.65898000   12.96739000   19.09060000     -0.734539    0.20872500   -1.14404200
Se    2.94466000   20.71777000    9.55656000      0.129940    0.03911000    0.19965700
Se    1.41728000   16.54912000    0.77012000     -0.161290   -0.03198300    0.42694800
Se    9.24309000   22.70792000    7.44223000      0.005116    0.13376900    0.22000100
Se   10.07611000    3.06723000    0.79820000      0.096111    0.50724600    0.01594300
Se   10.57707000    4.44323000    9.36593000      0.094608   -0.48155000    0.29990200
Se    6.36027000    8.91092000   18.09563000      0.285451   -0.46984900   -0.84562700
Se   11.08995000   13.54515000    7.44397000      0.439097    0.35650400    0.04793800
Se    8.45834000   14.11238000   17.89394000      0.578613   -1.02354100    0.56540700
Se   11.61509000   20.47264000    8.76108000      0.176575    0.22825100   -0.49509000
Se   12.00346000   15.21638000   17.25203000      0.177786    0.37652700   -0.15989800
Se   16.14224000    0.94821000    8.03396000     -0.037489   -0.25153600   -0.11474600
Se   15.64287000    2.31815000   17.76693000      0.055263    0.32554200    0.12444900
Se   14.83780000    5.78858000    8.73911000      0.647258    0.14872200   -0.32572800
Se   13.94552000    7.88649000   17.78922000      0.303490   -0.67689700   -0.26063600
Se   16.62381000   11.34779000    9.53477000      0.904219   -0.16687500    0.31887400
Se   16.65681000   13.30862000    0.13230000     -0.497968    0.51209400   -0.77280200
Se   13.78732000   18.72470000    7.23001000      0.379938   -0.38234600    0.18160500
Se   16.63024000   18.80921000   18.96062000     -0.199431   -0.15717500    0.67001900
Se   22.82339000   22.44750000    8.30950000     -0.251722   -0.13577400    1.13455700
Se   22.22708000    0.51030000   15.53299000      0.194449   -0.41395300    0.67330400
Se   20.85784000    5.78950000    8.16632000     -1.313014    0.49114600   -0.30861600
Se   21.33862000    7.23432000   18.44726000      0.703470    0.04603600   -0.89388400
Se   22.03094000    9.30169000    6.36241000      0.851726    1.56498500    1.33337400
Se   20.38657000   11.17735000   16.89399000     -0.055012   -0.46544900   -0.18733700
Se   19.87386000   17.19857000    8.34270000     -0.430480   -1.48828600   -0.41026100
Se   19.43901000   16.38449000   16.23637000      1.279443    1.26035800   -1.43977000
Se    3.44422000    2.78693000   10.52066000     -0.604005   -0.05875000    0.19449800
Se    3.34257000    0.39436000   14.17435000     -0.843136    0.26892900    0.58071300
Se    1.84471000    8.05158000    7.53650000     -0.068091   -0.29830800   -0.70943200
Se    1.41671000    9.69823000   17.67954000      0.209365    0.02845200   -0.04217300
Se    0.46701000   16.72145000    6.77357000      0.192843    0.28190600    0.35447300
Se    2.06945000   13.72250000   17.39196000     -0.675334   -0.12169000   -0.38607500
Se    0.33723000   19.10966000    7.80912000      0.062137   -1.39908700   -0.44277100
Se    2.07013000   20.72331000   16.79353000     -0.967237   -0.39857800   -0.26877700
Se    7.62292000    0.89932000    5.38695000      0.114441   -0.81964800    0.53718700
Se   10.21032000    0.72070000   18.21611000     -0.104914   -0.25928100   -0.76101300
Se    8.14454000    7.39026000    6.51485000     -0.246982   -0.62560600   -0.20507700
Se    6.00358000    6.19962000   14.84741000      0.242592   -0.24797700    0.86726400
Se    7.68412000   14.50026000    6.14325000     -1.381000   -0.73800600    0.00662500
Se    8.74242000   15.93711000   13.46988000      0.049046    0.13798100    0.66418500
Se    7.21080000   18.81873000    4.35521000     -0.474298   -0.45348000   -0.18901800
Se    6.74349000   16.16561000   15.17965000      0.448805    0.18900900   -0.28719000
Se   14.93447000   21.83898000    4.14203000     -0.688799    0.27694600    0.26213900
Se   14.32649000    0.71347000   16.41434000      0.385834    0.19558900   -0.33593700
Se   12.94338000    7.60806000    6.15789000      0.663390    0.62556200   -0.51242500
Se   11.61133000    6.78245000   15.22622000     -0.955274   -0.31695200    0.96920600
Se   13.39144000   11.61487000    5.95137000      0.264782   -0.37480100   -0.79265900
Se   14.61180000   13.92650000   13.82474000     -0.557838    0.22495700   -0.59194500
Se    9.79433000   16.64590000    6.16933000      0.724629    0.91767900   -0.85242800
Se   13.14140000   19.94888000   17.24821000      0.782348   -0.51969100   -0.33227100
Se   19.55686000    2.00284000    3.85114000      0.305807   -1.50306800    0.76586500
Se   19.15843000    0.24857000   17.16044000      0.400089   -0.00708700    0.34052700
Se   17.96497000    4.21454000    6.41566000      0.941253   -0.20885400   -0.65568800
Se   18.29483000    6.04019000   16.18506000      1.137024    0.21555300   -0.60858500
Se   20.21385000   10.09988000    4.35952000     -0.600646    0.47753600    0.35721400
Se   17.68017000   13.85985000   13.49962000      0.787417   -0.48605000   -0.16299700
Se   17.69574000   18.36950000    5.35460000      0.033060   -0.51826100    0.60853300
Se   17.42206000   22.45589000   14.83701000      0.083983    0.00771700   -0.09274100
Se    4.17037000    7.23365000    6.75530000     -0.841828   -0.02469200    0.82595300
Se    2.83346000    4.86079000   13.28039000      0.748249    0.13422400    0.47406900
Se    3.50390000    9.52195000    4.61184000     -0.318493    0.06080800   -0.02217100
Se    5.07400000   11.54498000   15.39002000     -0.547272    0.51868000    0.18107800
Se    5.28268000   13.22180000    7.19536000     -0.630578    0.25280200    0.12461000
Se    3.87920000   18.01669000   18.20580000      1.723857    0.02299700   -0.14291600
Se    1.52574000   22.58196000    6.03731000     -0.400806   -0.47726600    0.08207700
Se    5.38834000   22.20687000   13.99803000      0.148857   -0.25925300   -0.62566700
Se   10.71137000    2.52475000    5.63638000      0.553321    0.22735600    0.55490800
Se    9.39202000    3.89637000   15.89498000     -0.978871   -0.20501300    0.24498000
Se   10.29279000   10.01652000    7.00282000      0.502132    0.57421800   -0.33175800
Se   10.59820000   12.98190000   14.77228000     -0.604843   -0.56975700   -0.06719800
Se    8.85427000   14.82039000    9.29857000      0.404355    0.03944200   -0.60325700
Se   11.32959000   18.49628000   16.55156000      0.231070   -0.08304800   -0.71812400
Se    9.86123000   20.33749000    3.92009000      0.527916    0.55766600   -0.48817600
Se    8.00807000   20.62446000   17.48199000      0.914412   -0.17251900   -0.48502700
Se   14.56894000    3.91285000    6.03321000     -0.619896    0.25666900   -0.64577600
Se   17.04463000    3.15060000   15.34925000     -0.010718    0.03055000   -0.91353800
Se   16.43737000    9.05915000    6.38920000      0.241714   -0.08607100   -0.43077400
Se   17.90469000   10.05657000   11.75819000     -0.094245    0.13470400    0.45500000
Se   17.26628000   13.09576000    4.83734000      0.654640    0.27352700    0.54437200
Se   16.32059000   18.20447000   15.88897000     -0.568458   -0.35033300    0.30052200
Se   15.79449000    1.24103000    4.00600000      0.140840   -0.77589200    0.50343700
Se   18.12873000    3.99562000   13.13281000     -0.081736   -0.12613400   -0.17249000
Se    0.27468000    3.30766000    7.62536000      1.142280    0.68765800    0.28346800
Se   22.44206000    3.21930000   14.75849000      0.146719    0.66965900   -0.65453700
Se   19.53396000   13.20176000    8.14290000     -0.400476   -0.48751900    0.89722600
Se   22.23910000   11.76505000   15.42739000     -0.489519   -0.03339600   -0.12500500
Se   21.47638000   13.65793000    6.92148000      0.494414    0.00645400   -0.42400100
Se   21.64736000   18.68459000   14.45033000     -0.042658   -1.13486400   -0.85353700
Se   18.61178000   21.57831000    7.61614000      0.387050    0.78238800   -0.77150700
Se   21.89212000   21.04297000   18.77807000     -0.049706   -0.04267600   -0.44631000
Se    3.36740000    2.87307000    6.55385000      0.218746   -0.53216200    0.45558600
Se    6.73468000    1.19501000   16.14916000      0.182048   -1.91554600   -0.83824200
Se   22.69573000    4.56405000    1.23669000     -0.063405    0.38868200   -0.31743300
Se    4.26635000    9.54417000   11.65492000      1.147644    1.07175200   -0.81100800
Se    2.61923000   12.25323000    3.30434000      0.683857   -0.52470000   -0.12227500
Se    4.02312000   15.55930000   15.62334000      1.013571   -0.69425100   -0.64150900
Se    5.02986000   16.01918000    1.50028000      0.499773    0.37873600    0.84204400
Se    5.59811000   17.69376000   12.39516000      0.803624   -1.74085600   -0.47878000
Se   10.36297000    0.82050000    2.93606000      0.050260   -0.28047900    0.47534900
Se   11.72989000    1.16426000   14.37598000      0.093896    1.16766100   -0.47239500
Se   10.49016000    8.37111000    2.51749000     -0.019571    0.45028600    0.81240700
Se    7.90652000    8.76775000   16.26012000     -0.319225   -0.43689300    0.47025700
Se    9.08616000   12.53021000    3.62987000      0.624085   -0.56801300    0.25261800
Se    9.95010000   12.08344000   11.79139000      0.479493    0.31193700   -0.22752200
Se    9.17002000   21.64694000    1.90762000     -0.355732   -0.94595700    0.85452900
Se   11.02700000   19.28107000   13.76256000      0.163676   -1.67915300    0.31003800
Se   17.83423000    0.57663000    5.19137000      0.097713    0.97632700   -0.45896800
Se   14.08727000    3.02701000   12.98451000     -0.044085   -0.50485600    0.80723400
Se   16.64662000    6.09535000    3.66634000     -0.570199    0.95322000    0.02782000
Se   15.08542000    6.41348000   14.17077000      0.564574   -0.54335600    0.48810000
Se   14.88743000   12.74533000    2.47629000     -0.876837   -0.58573300    0.00119800
Se   16.78254000   15.95293000   15.12456000     -0.568458    0.75998900   -0.07823700
Se   15.22165000   16.93199000    4.36168000     -0.014335   -0.37535500    0.13329900
Se   17.19855000   19.86119000   14.45610000     -0.193118    0.30039000   -0.94392800
Se   22.70931000    0.78281000    5.11742000     -0.387487    0.26031100    0.05015500
Se   20.93032000    0.06682000   12.43747000      0.208795    0.10329500    1.72348700
Se   21.74713000    5.16867000    4.67010000      0.369771    0.43994700   -0.40670200
Se   21.81750000    8.86646000   14.45477000      0.063692   -0.02892500   -0.02976500
Se    1.73514000   13.74287000    5.60632000     -0.258187   -0.08702800   -0.28851200
Se   21.79193000   14.34477000   16.19089000      0.839768    0.37187300   -0.30444600
Se   21.45760000   19.16260000    5.51002000      1.304877    0.45117000   -0.15336700
Se   21.66258000   19.79757000   10.14731000     -0.662995   -0.17336300    0.39854900
Se    0.86904000    4.05967000    5.32033000      0.190271    0.33360500    0.00933700
Se   21.95057000    5.93296000   14.25513000     -0.479543   -0.49822400    0.24030000
Se   21.26561000   10.30758000    2.28599000      0.094711   -1.24257400    1.12338200
Se    1.60878000   11.20268000   12.68216000     -0.409812    0.34230500    0.51629000
Se    1.13255000   14.11501000    1.24721000      0.327931    1.00155400    0.06146700
Se    0.51742000   20.22395000   12.07123000      0.128747    0.95083900    0.19637200
Se    3.85036000    0.52046000    4.63302000      0.046287    0.48766100    0.38299000
Se    4.37953000   18.94883000   13.76370000     -1.756281    1.05399600    0.80504100
Se   10.13132000    6.08793000    6.16779000     -0.407316   -0.19465800   -0.10864500
Se    7.41812000    4.13897000   12.86060000     -0.180128   -0.19242100   -0.51672300
Se    5.22553000    6.90372000    4.01405000      0.877681   -0.03220900   -0.31480800
Se    8.24879000   10.22895000   12.20515000      0.093859    0.64633300    0.39295000
Se    8.55770000   17.45912000    2.73081000     -1.031514   -0.05126300    0.77270300
Se   11.88477000   15.33287000   13.39843000     -0.503217    0.12981500   -0.60156700
Se    5.41434000   20.57095000    6.02038000      0.245768   -0.52794000   -0.43860400
Se    7.56457000   20.50829000   13.97981000      0.096753    0.60230600    0.83833100
Se   12.57401000    1.76291000    2.98909000      0.880229   -0.50736300   -0.44351400
Se   11.06047000    3.98799000   12.44183000      0.107032    0.00177600   -0.16045400
Se   14.37528000   10.71142000    3.85206000     -0.247479    0.46436700   -0.22822900
Se   12.02346000    9.66024000   12.90726000      0.142071    0.49538400    0.36223000
Se   11.62770000   15.13977000    3.61295000     -0.351341   -0.93635800   -0.54430900
Se   14.44289000   17.70330000   12.20413000      0.578655   -0.42320400   -0.16496700
Se   13.79820000   20.20128000    1.80215000     -0.272514   -0.84148400   -0.70457200
Se   13.12124000   22.23022000   14.26516000      0.779292   -0.04582200    0.25522300
Se   16.69864000    5.11799000    0.29034000      0.170080    0.33433300    0.24360600
Se   15.69012000    7.30485000   11.86669000      0.334478    0.23285700   -0.81839000
Se   17.66766000    8.24068000    3.55966000      0.020315   -0.51390100   -0.92440500
Se   21.11282000   12.20537000   13.12666000     -0.217787    0.32967100   -0.15327500
Se   21.59762000   15.16009000    3.93303000      0.698987   -0.02876900   -0.98392300
Se   19.12689000   16.22292000   12.16631000     -0.041438    0.01557200   -0.08948400
Se   18.11362000   20.87345000    3.89999000     -0.041702    0.97905000    0.22123500
Se   17.54617000    0.53812000   12.19354000     -0.740690   -0.06363100   -0.39982300
