384
23.00800000 23.00800000 19.32000000
Ge    5.29823000    5.25135000   11.03196000     -0.562429   -0.85781500   -0.42809700
Ge    4.84120000    5.76673000    1.64030000      0.671799   -0.15839300    0.50967800
Ge    1.44835000   11.73837000    8.12398000     -1.232817    0.76585800   -0.13954400
Ge    6.44497000   11.14355000   17.97766000      0.038828    0.78270500   -0.40574500
Ge    4.29479000   14.92116000    9.97624000     -0.143118    0.73622200    0.07829400
Ge    8.49623000   18.76362000    1.22385000     -0.589606   -1.08774000   -0.85668600
Ge    8.99413000   20.34124000    9.40779000      1.727202   -0.90070200   -0.01684300
Ge    4.68078000    1.57791000    0.01463000      0.581396   -0.00550100    0.34296200
Ge    8.53143000    5.18090000   11.04466000      0.244552   -0.38081300    0.69036500
Ge   11.82850000    5.33125000    0.71915000     -0.880785   -0.18220200    0.23571100
Ge   10.86590000   11.60954000    9.10933000     -1.077440   -1.77927900    0.09417300
Ge   10.59093000   12.08403000   17.34133000     -0.049121    0.10669100    2.00416500
Ge   10.31518000   16.89473000    8.03128000     -1.443963    0.01416000    0.14402500
Ge   12.07406000   14.64114000    0.28245000     -0.278492   -0.22993600   -0.26489000
Ge   10.36270000    1.79792000    9.93227000      0.374409    0.28870000   -0.08751400
Ge   15.35039000   21.32439000    0.48828000     -0.345128    0.05745600   -0.67645400
Ge   19.21534000    5.66826000   10.03504000     -0.593221    0.33386700    0.63771700
Ge   19.06812000    8.86544000   15.97649000     -0.080048    0.95264800   -0.11307200
Ge   21.04943000   14.03031000   10.70625000      0.979632    1.02879000   -2.01828900
Ge   16.55703000   11.06256000   18.58439000     -0.970205    0.34786200   -0.08950900
Ge   13.93841000   16.41465000    8.48888000      0.148468   -0.20937100    0.18172400
Ge   18.10929000   15.36041000    1.40350000     -0.541620   -0.62782700    0.17775300
Ge   18.09418000    1.00126000    9.46515000      0.465875   -0.50502600   -0.47246900
Ge   17.74599000    2.27298000    0.43836000      0.721154   -0.53837300    0.23504100
Ge   22.39022000    5.22106000   10.14520000      0.229980    1.42518900   -0.41538400
Ge   20.01245000    3.90301000    0.73414000      0.106540   -0.01892000    1.34647000
Ge    0.51550000    9.57712000    9.75610000      0.044056    0.59999800   -1.12874300
Ge    1.17638000   11.77990000   18.77859000     -0.502273    0.63955500    0.32108900
Ge   21.78739000   15.79130000    8.14860000     -0.063549   -0.81290300   -0.22047000
Ge    2.28327000   16.08613000   17.83323000     -0.668080    1.05400400    0.15552400
Ge   20.36810000   21.58884000    9.49490000     -0.751286    0.65393300    0.74428900
Ge    1.41427000   22.09390000    0.21963000     -0.319967    0.05437100    0.10572600
Ge    5.29202000    8.94002000    8.16138000      0.701963    1.00831100    0.42930100
Ge    0.34685000    6.27966000   18.84334000      0.949601   -0.21920600    0.85871900
Ge    0.84693000    8.73497000    5.10242000     -0.219044    0.02221000    0.81460600
Ge    4.33943000   13.61407000   16.73101000      0.126409    0.70145700    0.80280800
Ge    4.30393000   18.32743000    2.73053000      2.398394   -0.09726500   -0.98387200
Ge    2.08955000   19.71565000   18.23007000     -0.204244   -1.12956800    0.77813700
Ge    5.62759000   18.75055000    9.91003000     -0.668800    0.58856800   -0.37288900
Ge    3.78157000    0.03759000   17.22912000      0.006294   -0.13697500   -0.53655400
Ge    9.08139000    3.92512000    7.39396000      0.834322   -0.02043900    1.22380700
Ge    8.08685000    5.46400000   17.42242000     -0.469765    0.43546200    0.28063300
Ge    6.83866000   13.05042000    4.27410000     -0.411646    0.24823400    0.04112900
Ge    8.32096000    7.79734000    1.17275000      0.052788    0.59291200   -0.47047900
Ge    6.35604000   16.95924000    7.28191000     -0.464928    0.29092300    0.15679400
Ge    8.80302000   15.88377000   16.96828000     -0.402036    0.10958600    0.33014400
Ge   10.68409000   22.89452000    5.17826000     -0.009005   -0.07368300   -0.46889600
Ge   11.18604000   21.68424000   14.04427000     -0.601994   -0.09557100    0.37892000
Ge   13.37260000    6.37837000    8.31895000     -0.449848   -0.23983300    0.57612000
Ge   13.63022000    6.42892000   16.48592000      0.108969    1.15335800    0.12015600
Ge   13.55974000   10.01825000    7.44017000     -0.285965   -0.77064000    0.59039200
Ge   15.36022000   13.05315000   15.78053000     -0.099469    0.40524400   -0.11350200
Ge   13.33348000   16.94982000    5.42576000     -0.448730   -0.00989700    0.11972300
Ge   13.78041000   17.44489000   18.70669000      0.489684    1.44506700    0.63228800
Ge   13.76114000   22.39449000    8.52523000      0.728322   -1.14344800   -0.54153200
Ge   15.86512000    1.59938000   14.78834000      1.247033   -0.41415800    0.31486900
Ge   20.19785000    3.54143000    6.40072000      0.072987   -0.34333600    0.45452400
Ge   20.19339000    5.74603000   16.62903000     -0.020184    1.06791300   -0.02468000
Ge   17.61907000   10.63354000    7.20324000     -0.782331   -0.04718600    0.99396700
Ge   19.93330000   13.34907000   17.63898000      0.047755   -0.21219300   -1.60687100
Ge   17.87770000   16.31712000    5.37618000      1.179690    0.10679800    0.89572700
Ge   18.44244000   20.74885000   17.87738000     -0.694650   -0.79620800   -0.93948500
Ge   21.73544000    1.37891000    7.64571000     -0.014715    0.44898100   -0.10190900
Ge   19.02706000   22.00287000    0.58662000      1.290355    0.76078000    0.71153800
Ge    5.52544000    2.81561000    7.64323000     -0.850195    0.27346700    0.32620900
Ge    4.33048000    4.51471000   15.79901000      0.666377    0.76096900   -0.38395500
Ge    3.35473000    6.87384000    4.02317000     -0.150320    0.55163300    0.47489300
Ge    2.86918000   10.04333000   12.81786000     -0.721220   -0.07056300    0.55943900
Ge    1.62713000   15.39252000    3.43386000     -0.240004   -0.13136100   -0.08834500
Ge    0.92395000   19.12853000   14.96257000     -0.171091   -1.26161700   -1.10411700
Ge    2.44481000    1.39152000    8.10217000     -0.484648    0.61797700    0.40232700
Ge    5.52124000   18.74290000   15.84351000     -0.118222   -1.03824800   -0.34746900
Ge    9.23673000    3.26870000    2.73158000     -0.375653   -0.48129300    0.88627300
Ge    9.63002000    1.24474000   15.27210000      0.504352    0.30989400    0.98372700
Ge    8.52108000    9.79694000    5.34996000      0.730990   -0.86625700   -0.03363900
Ge    9.80606000    9.69668000   14.22821000      1.608424   -1.68546100    2.20372500
Ge   10.78151000   14.14686000    4.86883000      0.291499    0.71150500    0.74569300
Ge   12.25179000   12.04516000   13.38963000      0.558126    0.26636100    0.28638400
Ge    5.93652000   21.65428000    2.63836000     -0.118618   -0.52205900    0.27106500
Ge    9.10657000   18.75986000   15.79816000      0.532504   -0.08022500    0.06586100
Ge   13.53150000    1.42975000    6.43925000      0.623741    0.07751500   -0.20293900
Ge   11.75458000    4.60586000   15.33032000     -0.224001   -0.50783600   -0.23647500
Ge   15.60551000    6.59110000    6.24777000      0.118577   -0.56629000    0.23095300
Ge   14.67891000    8.87168000   14.57587000     -0.066615    0.32790100    0.44832900
Ge   15.31451000   13.56433000    5.56316000     -0.539978    0.34538900   -0.10180100
Ge   14.82292000   16.52483000   14.56737000     -0.361470    0.12746100   -0.11168000
Ge   11.43276000   17.73634000    3.31430000      0.546324    0.40039100   -1.10573800
Ge   10.26680000   21.55749000   17.05601000      0.345247   -0.49769500   -0.32531500
Ge   17.96808000    5.29332000    3.77678000      0.355713   -0.35526200   -0.58278400
Ge   20.91021000    2.43643000   12.39716000     -0.584718   -0.37138400    0.29062100
Ge   20.03337000    8.10486000    5.83774000     -0.015835   -0.45062500    0.03742000
Ge   18.50022000   11.67680000   14.05805000      0.456913   -0.22700400    0.27870100
Ge   21.23272000   15.57850000    1.62097000      1.784125   -2.03123600   -0.26875500
Ge   19.68567000   15.04711000   13.02012000     -0.539381   -0.38837700    2.00562600
Ge   19.25753000   19.36755000    5.56721000      0.771544    1.41563200    0.06022000
Ge   22.58335000   21.17318000   15.50326000     -0.818942    1.39425200    0.61189200
Ge    5.69189000    2.43331000    3.98834000     -0.449241   -0.19313900   -0.75306500
Ge    5.31747000    1.71095000   14.28038000     -0.180754   -0.80136600    0.37592400
Ge    5.83731000    9.22757000    4.12395000      0.355854   -0.55750500   -0.49053800
Ge    6.61358000    8.59431000   12.76749000     -0.088513   -1.16917400    0.01112100
Ge    6.64547000   15.54863000    3.23501000      0.654939   -0.50640800   -0.76907200
Ge    3.92458000   13.91645000   13.92787000     -0.637087   -0.73331400   -1.32064900
Ge    5.45695000    0.47227000    6.18942000     -0.889302   -0.43237900   -0.32230900
Ge    7.39139000   19.96580000   12.30069000     -0.111588   -0.41271000    0.58300500
Ge   11.95825000    4.07594000    4.61617000     -0.299903    2.08156500   -0.89349600
Ge    8.00074000    1.71471000   13.06594000     -0.137715    0.52214500   -0.49389800
Ge   11.46219000    8.96523000    0.77477000      0.263655    0.22899300   -0.71043500
Ge   11.87903000    6.51532000   13.03315000     -0.185113    0.32679100   -0.25563600
Ge    9.75501000   13.42138000    1.52529000     -0.105446   -0.12983000   -0.59076500
Ge    8.85359000   14.69002000   11.76518000     -0.118834    0.42047600    0.19246800
Ge   12.13720000   20.34031000   19.04781000     -0.454215    0.60227000    1.34559400
Ge   12.18248000   19.88483000   10.77269000     -0.871754   -0.73604600    0.16375900
Ge   21.63442000    0.89378000   17.82114000     -0.082873   -0.99499500   -0.55575500
Ge   14.67354000    5.25685000   12.50694000     -0.341331    0.76090500   -1.73082800
Ge   17.37101000    8.32420000    1.23260000     -0.815201   -0.14675500    0.07199700
Ge   14.90102000    9.41425000   10.14486000      0.206486   -0.13577200   -0.38790000
Ge   16.66332000   11.86826000    3.12188000      0.002573   -0.03940200   -0.33050300
Ge   17.88609000   14.79872000    8.92041000      0.699765   -0.33625300   -0.36100500
Ge   17.71836000   18.09058000    2.12334000     -1.194042   -0.27437900   -0.57650300
Ge   15.92782000   21.18528000   11.93185000      0.889523   -0.72905300    0.06304700
Ge    0.40972000    2.06372000    1.53407000     -0.568750   -1.02201500    0.05059600
Ge   22.98996000    0.38902000   11.12771000      0.372942   -1.30729200    0.19356600
Ge   21.95047000    7.11959000    2.86729000     -0.164594    0.67477900    0.05348500
Ge   22.14123000    9.66178000   12.37939000      0.443033    0.58984500   -0.20717200
Ge   22.48393000   12.94289000    4.25867000      0.607054   -0.01750100    0.23713000
Ge    1.24489000   16.38704000   10.20383000     -0.521657   -2.33743400    0.50048000
Ge    0.74047000   20.82144000    4.25121000     -0.167436   -0.92605800    0.15860500
Ge   20.87728000   17.49350000   11.92721000      0.338466    0.15177000    0.13901200
Se    1.01185000    1.41365000   18.30650000      0.340095   -0.18257100    1.04874600
Se    1.24399000    3.77326000   11.70964000      1.346871   -0.64245300    0.52319700
Se    1.16051000    7.39647000    1.86967000     -0.573549   -0.06710800   -0.41172600
Se    0.38262000    7.77950000   11.33851000      0.516037   -0.08328300    0.84913100
Se    3.33933000   11.45878000    0.79532000     -0.620246   -0.21293400   -0.43541000
Se    2.09036000   13.83108000    9.58468000     -1.482129    0.13463600   -0.06618900
Se    2.22015000   18.51559000    3.27708000     -3.422931    0.18982300    0.75657300
Se    1.68048000   18.55164000    9.74329000      0.228342    1.69286200   -0.39545500
Se    7.22007000    1.85854000    1.97705000     -0.412520   -0.00665600    0.41865900
Se    7.71074000    1.42904000   10.55271000     -0.366388   -0.27098200   -0.24516500
Se    7.22722000    5.58663000    1.06785000     -0.145900   -1.21185000   -0.13998000
Se    9.61227000    6.99301000   12.06097000      0.675827    0.49854100    0.09527000
Se    8.28095000   11.13548000    0.71555000      0.877227    0.77858900   -0.36251500
Se    5.99496000   13.61633000   12.46419000      0.696136    0.38700400    0.61440100
Se    5.00451000   19.97269000    1.01688000     -0.013077   -0.10618400    0.33373600
Se    9.38521000   18.79772000   11.67602000      0.232091   -0.39970100   -0.43440300
Se   14.18403000    2.38219000    0.24057000      0.585213    0.72644700    0.47596500
Se   12.91231000    0.84628000   10.19719000     -0.620679    1.13873600    1.29062400
Se   10.08069000    7.06061000   18.61952000      0.654308   -0.63348900    1.00880200
Se    9.49471000    9.26697000    8.69682000     -1.575716    1.51918300    0.14655400
Se   11.77717000   11.98623000    0.53568000      0.030500    1.03434000    0.04929700
Se   12.87494000   11.52884000   10.47980000      0.750308   -0.50870600    0.61841700
Se   15.50469000   15.62840000    1.94032000     -0.305221   -0.29604100    0.17514000
Se   11.90738000   17.11877000    9.80527000     -0.002127    0.70324100    0.41992900
Se   16.62798000    3.19305000    2.41402000     -0.051217    0.85486700    0.68570900
Se   15.98832000    3.36561000   11.27563000      0.295569   -0.17778000   -0.06484700
Se   15.92819000    6.95356000   18.19306000     -0.347279    0.50828400   -0.46138800
Se   20.69584000    6.23202000   11.95400000     -0.652153   -0.39593200   -0.53226200
Se   18.58311000   10.13403000    0.10496000      0.820168   -0.02437400    0.16124300
Se   16.18808000   15.46486000    7.28859000      0.218431   -0.14888300   -0.39106200
Se   20.00456000   16.97486000    0.37478000     -1.092304    1.56782000   -0.52386400
Se   18.23830000   19.92006000   11.14284000     -0.933601    0.29580200   -0.28699500
Se    3.89440000    3.68868000    2.41419000      0.231167    0.47892500    0.36319600
Se    3.73443000    6.63619000   12.24508000      0.034398    1.29475700   -0.02532600
Se    6.53899000   10.00898000    1.59029000     -1.530372   -0.52228300    1.42328100
Se    4.87587000   12.64362000   10.68689000      0.408265   -0.46765800   -0.30018600
Se    4.49010000   15.64807000    4.21834000     -0.846227    0.21414600    0.37834400
Se    2.98449000   16.22505000   11.93711000      1.067667   -0.68667800   -0.19182900
Se    2.76805000    1.25578000    1.90512000      0.561823   -0.80770000   -0.38467000
Se    6.94891000   21.09886000   10.14965000     -2.009358    0.69812300    0.45817900
Se   11.21722000    6.14141000    3.32775000      0.087582   -0.58207800   -0.11972900
Se    7.04490000    3.56841000    9.73194000      0.354034   -0.71010700   -0.75577000
Se   10.24287000    9.69887000   17.81256000      0.488763    0.28216600    0.02573400
Se    7.25814000   10.69799000    9.25298000      1.376813   -0.82267400   -0.29072000
Se   10.63878000   17.67177000    0.81160000     -0.033264    0.14757800   -0.02071300
Se   11.42549000   14.90985000   11.27021000      0.470933   -0.84413100    1.12219000
Se   13.16247000   22.60923000    0.95045000      0.213607   -0.53018900   -0.75492900
Se   11.09024000   21.87547000   11.51925000     -0.113810    1.15039700    0.16238500
Se   14.24753000    4.73417000    1.35163000     -0.614912   -0.82359000    0.03677500
Se   16.90330000    7.39351000    9.88568000      0.578009   -0.05340900    0.72497100
Se   14.99546000    9.35169000    1.45930000      0.219622    0.24511500   -0.51327500
Se   15.37804000   10.16351000   12.57983000     -0.031757    0.52225500   -0.26590700
Se   18.86606000   13.88766000    3.28364000     -0.629200    0.27923700    0.12151600
Se   14.74589000   12.68344000    9.49503000     -1.455404    1.76130900   -0.68318800
Se   17.02628000   22.77845000    1.67787000     -0.256525    0.52799800    0.06089100
Se   14.40060000   20.27227000   10.00540000      1.395408    0.96528900   -0.49991600
Se   20.84956000    1.00189000    1.57568000      0.013249   -0.31105000   -0.82567600
Se   21.97010000    2.79497000   10.19853000     -0.618972   -0.32158800   -0.10137600
Se   19.79324000    6.53556000    0.84758000     -0.026520   -0.10824500    0.67141100
Se   21.08487000   10.41372000   10.30517000      0.362740   -0.48509800    0.31887500
Se   20.05310000   13.29356000    0.58147000      0.903349    0.43407500    1.70403100
Se   22.80250000   15.70659000   12.16653000     -0.829941    0.85407100   -0.13500400
Se   22.62575000   21.78997000    2.38607000      0.278914    0.35458500   -0.67931000
Se   20.05386000   20.04186000   15.64247000     -0.116952    1.63346000    0.23383900
Se    3.93875000    5.06823000    8.33434000      0.397414   -0.11944700    0.43919200
Se    1.33792000    6.23527000   16.50169000     -0.449380    1.32879200   -0.09834600
Se    3.62324000   11.03339000    8.21182000      1.582919   -0.69287300    0.10672600
Se    3.48809000    9.80156000   18.18080000      0.440632   -0.13370200    0.39666600
Se    4.66504000   19.30466000    7.47548000      0.149485   -1.27600100    0.38912100
Se    0.46050000   17.39896000   16.66949000     -0.115476    0.23493800    0.26100000
Se    2.78163000   21.83398000   11.70842000      0.018103   -0.02555100    0.28049400
Se    5.16377000   20.83917000   17.11690000     -0.048006    0.92632300    0.22300700
Se    7.21209000    3.63113000    6.07731000     -0.749948    0.12513700   -1.59874000
Se    6.18106000    3.45655000   17.14934000     -0.238420   -0.11681900    0.55681300
Se    6.39852000   10.71334000    6.04090000     -0.333781    0.27964600    0.86082300
Se    4.83535000    6.57227000   17.48347000     -0.136187   -0.31884800   -1.21575600
Se    6.79746000   16.50878000   10.17256000     -0.283527   -0.35350300   -0.92980800
Se    7.24789000   17.39032000   18.50529000      0.470579   -0.05164800   -0.02761000
Se    8.53809000   18.72997000    7.62213000      0.556431   -0.06608300    0.18719800
Se    6.14196000   22.31726000    0.11913000     -0.154479    1.02403400    0.46588100
Se   13.77623000    3.01965000    9.35187000     -0.534633    0.13590900   -0.14032400
Se   13.30819000    4.29883000   17.45455000     -0.959711    0.08677000   -0.05143700
Se   12.94369000    7.98920000   10.17354000     -0.453901   -0.51779100   -0.26557500
Se   13.53097000   11.48035000   15.76677000      0.301433   -0.56693100   -0.15435900
Se   13.02546000   14.34148000    6.75827000      0.276450    1.33859500    0.06637900
Se   13.76251000   15.07594000   17.59694000      0.989484   -1.30784600   -0.60582300
Se   13.34098000   21.43319000    5.74950000      0.261412    0.27441200   -0.73771500
Se   16.37990000   22.13582000   17.21014000      0.661683   -0.35939100    1.14899200
Se   18.06488000    3.56408000    9.34396000      0.251453   -0.23595300   -0.06301100
Se   20.18792000    3.67041000   17.69841000     -0.315748   -0.87408400   -1.47733300
Se   19.50470000    9.34152000    7.95971000     -1.104750    0.03777200    0.85216300
Se   16.88706000   10.25827000   15.71948000      0.093391   -0.11163500    0.43880400
Se   15.30937000   16.19323000   10.65482000      0.088934    0.26269000   -0.11628100
Se   17.93692000   14.97777000   16.60939000      0.744610   -0.33446400    0.45956400
Se   17.74320000   19.53937000    8.82595000      0.188607    0.45550600    0.46774000
Se   19.60974000   19.47248000    2.24067000      0.969584    1.28827100    0.56079200
Se    4.39262000    0.00431000    8.45286000      0.679751   -0.16395600    0.27112200
Se    2.01273000    4.10531000   16.40620000     -0.431280   -1.88326200    0.42965800
Se    6.86368000    6.93040000   10.31422000      0.492825    0.85302600   -0.09718300
Se    3.23041000    6.05645000   19.21585000      0.096474    0.27334500    0.11404700
Se    4.03145000   15.52222000    7.09446000      0.015630    0.79316200    0.11161600
Se    5.68286000   13.55273000   18.85930000     -0.626247   -0.13290400   -0.22934800
Se    3.53515000   20.37741000    9.91835000     -0.112017    0.24460800   -0.24199200
Se    0.66777000   16.92330000    0.50501000      0.298591   -1.19884900   -0.07161800
Se   10.04466000   22.31562000    8.11132000     -1.350306    1.03058500   -0.24292700
Se    9.67154000    3.67019000    0.47564000      0.979759    0.38259100   -1.03883700
Se   11.50110000    4.32928000    9.10867000      0.413747    0.16065000    0.53616200
Se    6.39865000    8.25966000   18.47417000      0.450818    0.47120000    0.56388100
Se   10.92785000   13.90420000    8.64139000      0.102868    0.86801200   -1.12498400
Se    8.38076000   13.14260000   17.86058000      0.479518    0.69802600   -0.21108700
Se   11.74884000   20.82415000    8.20087000      0.881666   -1.58947600   -0.06696700
Se   11.52343000   14.80942000   16.79276000     -0.161830   -0.12963000    0.66184900
Se   15.78797000    0.68625000    8.15050000      0.883089    0.18461800   -0.28786900
Se   16.12547000    3.18270000   18.20519000     -0.721775   -0.52875200   -0.36747200
Se   15.69721000    5.48581000    9.25119000     -0.646039    0.29014300   -0.62675400
Se   13.79573000    8.26088000   18.35515000      0.490852   -0.49782200   -0.04020900
Se   16.83385000   11.94507000    9.45786000      1.977158   -1.01952100   -0.15267300
Se   16.72546000   13.98529000   19.17014000     -0.166167   -0.28407200   -0.24566600
Se   14.14498000   18.59375000    7.38214000     -0.109789   -0.68025200   -0.55536800
Se   16.53884000   18.94812000   18.98949000      0.271733   -0.21207100    0.81452900
Se   22.77897000   21.41896000    9.23302000      0.331008    0.92481700   -0.50213200
Se   22.81466000    0.66764000   15.34899000     -0.284658   -0.55447400    0.17366200
Se   20.67135000    5.98261000    8.27107000      0.164780    0.05480700   -0.72205700
Se   21.23834000    7.42389000   18.52665000     -0.164387    0.52321200   -1.03150400
Se   21.97102000    9.78949000    6.63133000      1.532444   -0.59876600   -0.32887100
Se   20.54987000   10.88096000   17.12459000      0.867991    0.67428800   -0.03189100
Se   19.63522000   16.84500000    7.70172000      0.109708   -0.27853400    0.13627900
Se   20.05786000   16.16150000   16.69014000     -0.412971    0.15942900   -0.19944900
Se    3.50947000    2.95508000   10.38236000     -0.757833    0.06405200   -0.41305000
Se    2.98433000    0.27020000   14.65370000      0.970897    0.71631300    0.19594200
Se    0.99510000    7.89736000    7.72101000     -0.317445    0.67053000   -0.74925800
Se    1.32461000    9.64923000   17.24436000      0.046615    0.25800800    0.01374000
Se    0.71489000   16.72629000    6.82155000      0.230943   -2.11200200   -0.59554900
Se    1.74983000   13.76533000   16.98877000      0.454714   -1.11057200    0.04949100
Se    0.30624000   18.89086000    7.21201000     -0.517422    1.60173300    0.41854600
Se    2.47220000   20.65631000   16.04690000      0.510448    0.46399700    0.07515100
Se    7.84700000   22.87957000    6.06923000      1.653927    1.52353300   -0.46509500
Se   10.44018000    0.66698000   17.90701000      0.075011    0.97831400   -0.25932400
Se    7.66272000    7.23723000    5.93633000      0.287953    0.18321300    0.40222200
Se    6.65344000    7.01789000   15.31440000      0.204843   -0.01693300   -0.64297500
Se    7.30741000   14.14812000    6.55017000      1.087718    0.17099300   -0.97840300
Se    8.96480000   16.97868000   13.89043000      0.095403   -0.45834900   -0.00367400
Se    5.80533000   19.13646000    4.41945000      0.621453    0.22555300    0.47505400
Se    7.33374000   15.59906000   14.97312000      0.037472    0.03001200    0.12879800
Se   15.06849000   21.83351000    3.75891000     -0.901892   -0.29415500    1.28413600
Se   14.18313000    1.33070000   16.49111000     -0.131244   -0.10742000    0.04418000
Se   13.25390000    7.56299000    6.05100000     -0.472193    0.18714300    0.51792900
Se   10.86621000    7.00806000   15.25142000      0.997999   -0.33889900    0.81418200
Se   12.95183000   11.72541000    5.67493000      1.692433    1.15295600   -1.64972900
Se   14.71272000   14.20750000   13.43020000     -0.192145   -0.34962500    0.20595800
Se   10.35407000   16.96081000    5.65530000      0.236233   -0.74388800   -0.18337000
Se   13.69497000   19.92384000   17.20405000      0.261941   -0.66642700   -0.50947300
Se   20.04799000    1.28182000    4.61173000      0.286327    0.15337500    0.53066400
Se   18.77891000    0.42472000   17.53337000     -0.084570   -0.29576300    0.07025300
Se   17.82931000    4.05129000    5.90363000     -0.168281   -0.03745300    0.36808700
Se   17.93771000    6.75263000   16.21529000      0.139301   -0.91696500    0.35526400
Se   20.10076000   10.49933000    5.05125000      0.205367    0.38656300   -0.62079000
Se   17.38311000   13.58752000   13.03530000     -0.194499    0.35123900   -0.19022100
Se   17.06644000   18.60707000    6.13809000     -0.658203    0.06406300   -0.57724300
Se   17.41109000   22.68817000   14.14606000      0.117655    0.08355900   -0.09206100
Se    3.90881000    7.18079000    7.13573000     -0.794139   -0.73692500   -0.47707700
Se    3.33366000    4.65547000   13.25622000     -1.174059   -1.30062100    0.57511100
Se    3.53058000    9.76186000    4.26147000     -0.834525   -0.89860100   -0.12251000
Se    5.61589000   12.08454000   15.50892000     -0.342513   -0.32024400   -0.35497000
Se    5.15578000   13.45270000    7.05992000     -0.523652   -0.75179400    0.13202600
Se    4.05667000   17.81639000   18.13214000      0.090644    0.08489700   -0.11668400
Se    1.89629000   21.99463000    6.10739000     -0.636259    0.24679500    0.24611700
Se    5.20732000   22.23981000   13.71841000     -0.115490    0.69508800    0.43190700
Se   11.11000000    2.81948000    6.39511000     -1.300606   -1.12016200    0.25224000
Se    9.54468000    3.95265000   16.19201000      0.287563   -1.29406400   -0.61434700
Se   11.13698000   10.56099000    6.25339000     -2.134368   -0.96347300    1.30925200
Se   10.37566000   11.97506000   15.05018000     -1.160069    0.39835700   -1.80294000
Se    8.69441000   14.95394000    9.17815000     -0.200853    0.36561600    0.37239600
Se   12.10242000   18.23456000   16.29448000     -0.030446    0.53568600   -0.31242900
Se   10.11759000   20.03015000    4.11259000     -0.033393    0.68280400    0.40222900
Se    8.13578000   20.58884000   17.50594000     -0.254668   -0.11893100    0.14700100
Se   14.21082000    4.14145000    5.41509000      0.759770   -0.04705400    0.44048200
Se   18.14766000    2.76903000   14.88134000     -0.113020    0.25625000    0.36699400
Se   15.76227000    9.15946000    6.65389000      0.945911    0.46723500   -0.13105000
Se   17.73444000    9.92999000   12.47438000      0.208994   -0.34713000   -0.50468700
Se   17.66309000   12.44081000    5.60082000      0.330141    0.27039200   -0.57500300
Se   16.60652000   18.24483000   16.10594000      0.264309   -0.24205000   -0.24178400
Se   15.34913000    0.94104000    4.62959000      0.911400    0.32147300    0.01116400
Se   18.68171000    3.57155000   12.74291000      0.310566    0.03494400    0.02351400
Se    0.29641000    3.84539000    7.63738000     -0.056997   -0.27662500   -0.01843700
Se   22.57663000    3.60573000   13.82867000     -0.040653    0.02526600    0.40228200
Se   19.69580000   13.05069000    8.46420000     -0.973465   -0.57050300    0.45811600
Se   22.46235000   11.60683000   15.79274000     -0.675762    0.10887100    0.31766100
Se   21.34130000   13.45879000    6.90060000      1.173139    0.80162100    0.09451900
Se   20.87505000   18.29444000   14.52335000      0.695214   -1.53957500   -0.90950600
Se   19.04303000   21.23295000    7.36256000     -0.313206   -0.64929400   -0.11618800
Se   22.43112000   21.22468000   18.06967000     -0.541249    0.06809700    0.33819900
Se    3.29305000    2.86892000    6.22170000      0.260287   -0.21456100    0.14470200
Se    6.27731000    0.99921000   16.93549000      0.065674    0.24161500   -1.11320600
Se   22.61513000    3.99856000    0.40889000     -0.108339    1.81120500   -0.16971200
Se    4.79950000    9.57125000   11.36688000     -0.393025    0.33588000   -0.56616200
Se    1.76176000   11.90137000    3.08453000     -0.101654    0.74943400   -0.54308700
Se    4.04658000   15.84432000   15.37065000      0.364460   -0.09550900    0.80651000
Se    4.70943000   16.08518000    1.53619000      0.336409    0.10388200    0.79875500
Se    5.80683000   17.96911000   12.77844000     -0.527912    0.96270200    0.20325000
Se   10.75157000    1.04078000    2.60026000      0.296220    0.06613400    0.81297900
Se   11.83395000    1.39756000   13.83898000     -0.607472    0.24737800    0.24294200
Se   10.09335000    9.04614000    2.76452000     -0.171235   -0.53594300   -0.03753300
Se    7.97491000    8.77213000   16.40334000     -0.098530   -0.08371100   -0.34345200
Se    9.21818000   12.40668000    3.73599000      0.438850   -0.20775000    0.41244800
Se    9.81687000   12.37549000   11.70517000      0.473945   -0.03378500   -0.58609200
Se    8.75350000   20.92815000    2.44370000      0.031117    0.73165000   -0.48961800
Se   11.35493000   18.97772000   13.84290000     -0.191335    0.03849600    0.79122100
Se   18.19965000    1.02649000    6.03621000     -0.115802   -0.13057600   -0.06918300
Se   14.57575000    2.40904000   13.06161000     -1.198680    0.00590000   -0.61534700
Se   15.88938000    6.72306000    3.72984000      0.017413    0.44346200    0.08674300
Se   15.17166000    5.17243000   14.79174000      0.662283    0.49555100    1.55257600
Se   14.58315000   13.40361000    2.77880000      0.455270   -1.28279800   -0.20558000
Se   17.35827000   16.44964000   14.58348000     -0.187050    0.57671900   -0.18640900
Se   15.66954000   15.89924000    4.52312000     -1.403101    0.31494100   -0.80808800
Se   16.91330000   20.34755000   14.49600000     -0.452629   -0.12954200   -0.67119600
Se   22.80100000    0.45978000    5.63919000     -0.018976   -0.39750600   -0.60126400
Se   20.84253000   22.94025000   12.41156000     -0.092494    0.89244600   -0.23928700
Se   21.17590000    5.27434000    4.93908000      0.447955   -0.08825800   -0.57299000
Se   21.25320000    8.72516000   14.44745000     -0.425945    0.10984700    0.05514500
Se    1.34957000   13.76435000    6.15070000     -0.800983   -0.42225000   -0.91842700
Se   21.74744000   14.37468000   16.35431000     -0.130439   -0.58666400   -0.01774000
Se   21.86624000   19.02163000    5.24714000      0.308143    0.70181000   -0.44957100
Se   21.29803000   19.37977000   10.24905000      0.513435   -0.20371300    0.21986800
Se    0.51381000    4.97885000    5.56705000     -0.298049   -0.40671900    0.05509100
Se   21.60744000    5.95333000   14.60582000      0.297266   -0.49460000   -0.37431200
Se   21.11798000    9.91929000    3.03423000      0.414824   -0.23901700   -0.54056700
Se    0.79770000   11.69907000   12.50350000      0.603974   -1.09117300   -0.09504600
Se    1.12398000   14.25291000    1.13246000     -0.273024    0.29756600    0.84105200
Se    0.61791000   21.12683000   12.30584000      0.507419   -0.25367500    0.40013100
Se    3.55394000    0.42888000    4.05337000      1.022333    0.05581600    0.20347500
Se    3.61949000   18.77425000   14.12079000      0.899632    0.07094900   -0.44791200
Se    9.58958000    6.23425000    7.19082000      0.011864    0.65325200   -0.10722200
Se    7.21994000    4.04748000   13.03166000     -0.267230    0.73676900   -0.00609100
Se    5.84844000    6.40035000    4.06469000     -0.181255    0.57538400   -0.19112200
Se    8.22528000   10.45362000   12.87702000     -2.041477    1.34068600   -1.99028000
Se    8.24191000   17.44662000    3.36580000     -0.511401    0.09807500    0.00453500
Se   12.21368000   14.89183000   13.80605000     -0.178220   -0.25316800   -0.70696600
Se    6.44302000   21.09432000    6.48066000     -0.576460   -1.39338500   -0.01035200
Se    7.95700000   21.51524000   13.98134000      0.076172   -0.16638300    0.06309500
Se   12.79705000    2.17872000    3.57605000     -0.152530   -1.44840000   -1.47368900
Se   10.80649000    3.01756000   12.10245000     -0.249813   -0.16285400    0.37061100
Se   13.89087000   10.58040000    3.53738000      0.716075    0.49005900   -0.32197500
Se   11.91835000    9.17907000   12.90686000      0.197933    0.44923700    0.07371800
Se   12.08193000   15.21324000    2.99622000     -0.353466   -0.43444000    0.11688700
Se   14.71422000   17.80629000   12.31636000      0.068780   -0.13396100   -0.29503900
Se   13.52939000   19.10391000    1.60391000      0.030164    0.12259800   -0.04417800
Se   13.45165000   22.37819000   15.23934000      0.122814   -0.08002500   -0.25414900
Se   17.21695000    5.60905000    1.09123000     -0.247346   -0.19108500   -0.33080800
Se   16.75656000    6.65143000   12.81972000     -1.086264   -0.08972500   -0.00027300
Se   17.73148000    8.37711000    3.75263000     -0.230852   -0.13455900    0.04151800
Se   21.03349000   12.90452000   12.71655000     -0.669189   -0.85940600    1.36676300
Se   22.00601000   15.52967000    3.88410000      0.314925    0.15681500    0.47547000
Se   19.06205000   15.84381000   10.84544000      0.071349    0.87910000    0.12788000
Se   19.17808000   21.38496000    4.00276000     -0.086438   -1.23163200   -0.38375900
Se   16.69116000    0.61933000   11.41415000     -0.158388   -0.39305500    0.55148300
