384
23.00800000 23.00800000 19.32000000
Ge    5.29042000    5.28068000   11.02348000     -0.148196   -1.29229800   -0.69872500
Ge    4.78952000    5.76556000    1.61512000      1.222865    0.30162300    0.31118700
Ge    1.48664000   11.74304000    8.14357000     -1.412319    0.83155600   -0.18102700
Ge    6.38733000   11.17966000   17.96411000      0.110869    0.59222700   -0.31237700
Ge    4.29912000   14.91553000    9.93995000     -0.183161    0.90661500    0.12640200
Ge    8.55091000   18.73732000    1.21433000     -1.223358   -0.99417900   -0.77925800
Ge    9.02313000   20.29764000    9.37955000      1.437937   -0.61014500    0.48745500
Ge    4.73847000    1.54677000    0.02642000      0.574672    0.11384100    0.23362900
Ge    8.52785000    5.18278000   11.04262000      0.085311   -0.61856400    0.68177100
Ge   11.78608000    5.34601000    0.74299000     -0.955947   -0.20243600    0.18766800
Ge   10.80130000   11.60189000    9.10645000     -0.556368   -1.41293900    0.28140600
Ge   10.54625000   12.03028000   17.33196000      0.482160    0.30733600    2.19603900
Ge   10.29845000   16.93796000    8.02920000     -1.416294   -0.17009600   -0.12305400
Ge   12.04570000   14.63288000    0.31480000     -0.207045   -0.15996300   -0.32825800
Ge   10.32488000    1.82053000    9.83396000      0.507933    0.27589800    0.21530200
Ge   15.37010000   21.35597000    0.45881000     -0.201708   -0.08542200   -0.68680000
Ge   19.21537000    5.67612000   10.01200000     -0.905188    0.24269100    0.95131400
Ge   19.13648000    8.92340000   15.96353000     -0.561725    0.39720900    0.10310100
Ge   21.07903000   14.06665000   10.69271000      0.871176    0.90771900   -1.51419400
Ge   16.56972000   11.11740000   18.54354000     -0.476044    0.06650700    0.22186600
Ge   13.93478000   16.40550000    8.44173000      0.067369   -0.19644700    0.41394300
Ge   18.15907000   15.30655000    1.41805000     -0.778000   -0.68194900   -0.06715400
Ge   18.09560000    0.95013000    9.46654000      0.701916   -0.23849000   -0.56462300
Ge   17.70076000    2.21875000    0.52968000      0.951961   -0.36716400   -0.35590300
Ge   22.31067000    5.22358000   10.18082000      0.632964    1.39330100   -0.64142500
Ge   20.02718000    3.86924000    0.72287000      0.111087    0.00918800    1.27262300
Ge    0.53963000    9.60723000    9.72096000     -0.002569    0.16513800   -0.48030900
Ge    1.23491000   11.81145000   18.78702000     -0.948261    0.47171000    0.31842800
Ge   21.76936000   15.79828000    8.14919000      0.509796   -1.07064500   -0.18895800
Ge    2.25929000   16.02822000   17.81777000     -0.343270    1.26511600    0.16909100
Ge   20.32135000   21.58552000    9.53423000     -0.698533    0.51908100    0.80128200
Ge    1.45211000   22.08684000    0.17550000     -0.235556    0.14296300    0.24945600
Ge    5.33309000    8.91711000    8.11246000      0.632220    0.98268400    0.37548200
Ge    0.34128000    6.32824000   18.84283000      1.077927   -0.50161700    1.04693900
Ge    0.83199000    8.69800000    5.13226000     -0.282625    0.07905500    0.74629700
Ge    4.34173000   13.59580000   16.73626000     -0.146171    0.95245900    0.85636100
Ge    4.32771000   18.29527000    2.65174000      1.391372    0.72589600   -0.03939000
Ge    2.12820000   19.73112000   18.19861000     -0.078007   -1.16645400    0.89378500
Ge    5.59460000   18.78044000    9.85241000     -0.585598    0.71456500   -0.03753400
Ge    3.70831000    0.05634000   17.28982000      0.310470   -0.38873300   -0.62012800
Ge    9.10891000    3.97897000    7.38825000      0.627995   -0.54962500    1.23894600
Ge    8.11993000    5.43891000   17.46856000     -0.402234    0.25239800    0.06090200
Ge    6.82969000   12.98768000    4.25714000     -0.343282    0.34182600    0.05998800
Ge    8.27879000    7.77678000    1.14242000      0.268621    0.93062800   -0.25327100
Ge    6.34179000   16.93460000    7.30675000     -0.384598    0.44922700    0.13550900
Ge    8.77567000   15.81103000   17.01972000     -0.386800    0.18245800    0.11589700
Ge   10.68052000   22.91308000    5.18712000     -0.020910   -0.07331600   -0.48838700
Ge   11.22927000   21.67468000   14.06678000     -0.701625   -0.03051700    0.10052200
Ge   13.38143000    6.34388000    8.30248000     -0.425364   -0.28645800    0.74804000
Ge   13.67480000    6.52108000   16.55625000      0.030475    0.30926400   -0.17615100
Ge   13.52627000   10.00335000    7.43470000     -0.179598   -0.83542300    0.60586100
Ge   15.33631000   13.08841000   15.73940000     -0.112953    0.24709300    0.18689000
Ge   13.40933000   16.93227000    5.41521000     -0.673719    0.01621600    0.08639700
Ge   13.79353000   17.45805000   18.74443000      0.581048    1.38575700    0.56067300
Ge   13.79183000   22.37731000    8.49929000      0.457032   -1.02327300   -0.31080400
Ge   15.88523000    1.60749000   14.84574000      1.627149   -0.41646100    0.00122600
Ge   20.12832000    3.55537000    6.38268000      0.805527   -0.52719600    0.80607500
Ge   20.19933000    5.79516000   16.57408000     -0.176873    0.71822600    0.50524400
Ge   17.60618000   10.64464000    7.24392000     -0.931034   -0.69452000    1.12047600
Ge   19.90920000   13.36861000   17.62881000      0.035505   -0.43658900   -1.21237500
Ge   17.83502000   16.33565000    5.37602000      1.617032    0.21221200    0.88612100
Ge   18.45477000   20.77292000   17.81268000     -0.476948   -0.89791500   -0.67192000
Ge   21.74778000    1.41006000    7.65892000     -0.098356    0.43514400   -0.24769900
Ge   18.98664000   22.02378000    0.56760000      1.903431    0.50744200    0.31983900
Ge    5.47241000    2.81435000    7.60836000     -0.911011    0.16906500    0.38500400
Ge    4.25922000    4.51751000   15.85692000      1.128025    0.88744900   -0.62146600
Ge    3.38756000    6.87925000    4.07732000     -0.194860    0.61111200    0.51151000
Ge    2.83116000   10.02293000   12.81487000     -0.663944   -0.11696000    0.39644200
Ge    1.66189000   15.39565000    3.43255000     -0.422158   -0.21488400   -0.18309100
Ge    0.89578000   19.09472000   14.95441000     -0.245719   -0.81258600   -0.85279900
Ge    2.42285000    1.39792000    8.15009000     -0.009273    0.67126400    0.08488400
Ge    5.50642000   18.67015000   15.86288000     -0.331758   -0.75922000   -0.27226400
Ge    9.22381000    3.25144000    2.75895000     -0.148291   -0.42236100   -0.01323000
Ge    9.62281000    1.20057000   15.30463000      0.486158    0.33985600    1.02132800
Ge    8.49624000    9.74516000    5.34242000      0.908815   -0.75964300    0.00748500
Ge    9.79350000    9.61912000   14.20552000      0.960708   -1.36590800    1.58909900
Ge   10.81841000   14.13755000    4.89572000      0.260075    0.93647200    0.60862400
Ge   12.20488000   12.01502000   13.39699000      0.415979    0.43310900    0.36124700
Ge    5.90029000   21.65929000    2.66078000     -0.165126   -0.64362200    0.27031500
Ge    9.15314000   18.78521000   15.81896000      0.581446    0.02513600    0.09710400
Ge   13.52274000    1.44072000    6.44179000      0.691997    0.12320600   -0.35514800
Ge   11.75386000    4.65324000   15.35628000     -0.085099   -0.66276800   -0.23576600
Ge   15.62750000    6.59280000    6.27605000      0.072153   -0.64646200    0.01705000
Ge   14.68810000    8.89266000   14.57030000     -0.026329    0.41429400    0.45765000
Ge   15.34062000   13.53269000    5.59235000     -0.510179    0.21896900   -0.22070800
Ge   14.88154000   16.54995000   14.52404000     -0.632512    0.30781700    0.29992000
Ge   11.40665000   17.72498000    3.26324000      0.483922    0.31426800   -0.89016700
Ge   10.23994000   21.52361000   17.02604000      1.101053    0.25307800   -0.36276100
Ge   17.98898000    5.33035000    3.77994000      0.084860   -0.14488200   -0.68101900
Ge   20.96701000    2.48199000   12.37817000     -0.749825   -0.54429100    0.18898300
Ge   20.02651000    8.13332000    5.83887000     -0.024805   -0.44817100   -0.20843100
Ge   18.45339000   11.70507000   14.07280000      0.862474   -0.55970800    0.60078700
Ge   21.24918000   15.64044000    1.64440000      1.896079   -1.82272300   -0.60572200
Ge   19.60722000   15.01830000   13.04402000     -0.381736   -0.40986200    1.39029200
Ge   19.25410000   19.37121000    5.54869000      0.956066    1.42308200   -0.00447400
Ge   22.53352000   21.24296000   15.48542000     -0.430012    0.39171600    0.50023800
Ge    5.70057000    2.42882000    3.91672000     -0.313208   -0.09316600   -0.39704700
Ge    5.33843000    1.71470000   14.28129000     -0.324254   -0.62092200    0.53829000
Ge    5.86174000    9.24883000    4.10646000      0.037884   -0.60960900   -0.54530600
Ge    6.61489000    8.62105000   12.83218000     -0.363308   -1.11634900   -0.23103700
Ge    6.59414000   15.53083000    3.22434000      1.693003   -0.53233500   -0.97948100
Ge    3.91519000   13.91965000   13.87003000     -0.842983   -0.46884800   -0.99919000
Ge    5.44244000    0.45217000    6.12700000     -0.763353   -0.35518000    0.01531600
Ge    7.44908000   20.02121000   12.33188000     -0.599386   -0.51691300    0.10401300
Ge   11.87588000    4.09785000    4.60948000      0.203528    1.69073400   -0.84513200
Ge    8.01327000    1.80346000   13.07365000      0.185818    0.31874500   -0.55799200
Ge   11.43700000    9.00370000    0.74214000      0.295596    0.15849300   -0.49339600
Ge   11.87526000    6.60026000   13.01995000      0.296708   -0.25874900    0.00040000
Ge    9.72022000   13.34787000    1.49934000     -0.255263    0.04719900   -0.33726200
Ge    8.87453000   14.71319000   11.76047000     -0.276276    0.41411000    0.26236900
Ge   12.17422000   20.34716000   19.14642000     -0.386709    0.58749100    0.86456900
Ge   12.18941000   19.83686000   10.82910000     -0.851516   -0.53084700    0.27028200
Ge   21.62427000    0.86177000   17.79994000     -0.197362   -0.85737300   -0.42385900
Ge   14.67585000    5.27925000   12.55096000     -0.309651    0.67815900   -2.21601500
Ge   17.36287000    8.31483000    1.24111000     -0.481966    0.01911600    0.16792200
Ge   14.92172000    9.41309000   10.13133000      0.023366   -0.06578100   -0.41547200
Ge   16.67610000   11.86871000    3.11628000     -0.013845   -0.10164900   -0.25248000
Ge   17.88583000   14.78194000    8.88409000      0.704066   -0.37039000   -0.18966300
Ge   17.78494000   18.09453000    2.12862000     -1.848352   -0.91575500   -0.78136000
Ge   15.92704000   21.19981000   11.97314000      0.631402   -0.93837700   -0.13060000
Ge    0.43187000    2.05238000    1.57676000     -0.797439   -0.69088000   -0.19679800
Ge    0.00295000    0.36022000   11.16951000      0.225123   -1.21960200    0.08017400
Ge   21.94153000    7.09253000    2.93787000     -0.090207    0.85639500   -0.22726300
Ge   22.16175000    9.61939000   12.38739000      0.498120    0.78603000   -0.10573000
Ge   22.41595000   12.95565000    4.27380000      0.670225   -0.15258100    0.18829500
Ge    1.25515000   16.42832000   10.17555000     -0.698742   -3.09604900    0.93853500
Ge    0.77892000   20.79076000    4.21393000     -0.006816   -1.02972700    0.25205500
Ge   20.85018000   17.53833000   11.90383000      0.473109   -0.11608200    0.28140400
Se    0.98163000    1.37416000   18.27331000      0.576050    0.13070500    1.12750900
Se    1.25182000    3.77833000   11.74651000      1.303059   -0.67184900    0.30141400
Se    1.13882000    7.32578000    1.84611000     -0.531030   -0.02357200   -0.23483500
Se    0.36386000    7.74755000   11.40927000      0.760493    0.12892700    0.40722200
Se    3.33076000   11.43958000    0.74654000     -0.195510   -0.29976100   -0.21871000
Se    2.08513000   13.85493000    9.54904000     -1.388093    0.21759300   -0.00208600
Se    2.17650000   18.55614000    3.22635000     -2.341347   -0.05780200    0.47736400
Se    1.62203000   18.56002000    9.76411000      0.307789    2.33680500   -0.47627100
Se    7.20939000    1.85920000    1.95052000     -0.216137    0.04562200    0.29035000
Se    7.68804000    1.45747000   10.50596000     -0.182539   -0.54132000    0.02240100
Se    7.26305000    5.60589000    0.99980000     -0.762088   -1.57321900    0.24377900
Se    9.66671000    6.96108000   12.03666000      0.347709    0.74278300   -0.07978700
Se    8.30082000   11.15884000    0.75137000      0.564175    0.57321500   -0.41891300
Se    5.97586000   13.63270000   12.51294000      0.624017    0.16545300    0.02016300
Se    4.98195000   19.97809000    1.04421000     -0.018945    0.01027500    0.11981800
Se    9.36487000   18.78930000   11.72104000      0.480147   -0.45771800   -0.56740400
Se   14.23732000    2.44924000    0.24023000      0.361235    0.78421200    0.36519600
Se   12.91358000    0.83814000   10.18527000     -0.715536    1.02756300    1.09001800
Se   10.06295000    7.03343000   18.69579000      0.859316   -0.44670900    0.75807000
Se    9.48952000    9.30918000    8.68761000     -1.592585    1.36824300    0.17152100
Se   11.77904000   12.01576000    0.54979000      0.093179    0.77988000    0.06646300
Se   12.88989000   11.47350000   10.47164000      0.705846   -0.35869500    0.30881300
Se   15.47026000   15.57591000    1.94917000     -0.033912   -0.14570100   -0.00361100
Se   11.86564000   17.12095000    9.79542000      0.245409    0.73499200    0.28574900
Se   16.63732000    3.20418000    2.40787000     -0.237094    1.06873600    1.19572700
Se   16.02553000    3.31268000   11.24413000      0.004915   -0.04270700    0.00314500
Se   15.94752000    6.96301000   18.16481000     -0.236765    0.41777000   -0.44811000
Se   20.73083000    6.29139000   11.86850000     -0.871126   -0.29313000   -0.18793400
Se   18.62962000   10.13669000    0.13237000      0.150372    0.08997800   -0.01754000
Se   16.22557000   15.42540000    7.24704000     -0.000450    0.10774700   -0.13332500
Se   19.95890000   17.00078000    0.38074000     -1.267891    1.59732000   -0.38529500
Se   18.17721000   19.88378000   11.15176000     -0.868195    0.33440700   -0.28158900
Se    3.94828000    3.70680000    2.36201000     -0.078487   -0.01279800    0.49056400
Se    3.77035000    6.61768000   12.22014000     -0.437677    0.87868000    0.50363300
Se    6.55285000   10.00931000    1.64321000     -1.379011   -0.20420200    1.26371700
Se    4.86942000   12.65646000   10.64742000      0.602706   -0.35500800    0.21021200
Se    4.52139000   15.62524000    4.23108000     -1.655532    0.29265600    0.81740000
Se    2.98363000   16.26647000   11.91363000      1.125650   -0.76517400   -0.12904300
Se    2.78588000    1.24631000    1.89061000      0.459897   -0.83101100   -0.41762500
Se    6.96174000   21.11443000   10.10366000     -1.561907    0.30882200    0.63137300
Se   11.19197000    6.17077000    3.27191000     -0.026344   -0.40353600   -0.11493200
Se    7.08192000    3.54220000    9.67543000      0.149345   -0.24320300   -0.71442600
Se   10.27361000    9.68847000   17.80563000      0.424654   -0.00014100    0.06229700
Se    7.33886000   10.67724000    9.23434000      1.216516   -0.80054000   -0.30449300
Se   10.59828000   17.65165000    0.77684000      0.460305   -0.10709600   -0.11368400
Se   11.41291000   14.90345000   11.29509000      0.593128   -0.86810300    1.01364200
Se   13.21235000   22.58501000    0.96768000      0.100213   -0.57587900   -0.65940300
Se   11.11653000   21.89081000   11.47584000     -0.055042    0.81534700    0.42368200
Se   14.17895000    4.73114000    1.35204000     -0.421463   -0.79303900    0.07732000
Se   16.94002000    7.34830000    9.95362000      0.831989    0.40092000    0.75327000
Se   15.03861000    9.32468000    1.45188000      0.048825    0.38622200   -0.44240300
Se   15.38811000   10.17225000   12.56260000      0.070218    0.46527500   -0.23991400
Se   18.89304000   13.89255000    3.31292000     -0.667122    0.11670300    0.29494800
Se   14.77163000   12.74130000    9.56444000     -1.756097    1.58589900   -0.52429300
Se   17.04787000   22.80591000    1.62225000     -0.799760    0.71622100    0.58323400
Se   14.36997000   20.23541000    9.94811000      1.488451    1.00157500   -0.18955200
Se   20.82867000    1.05508000    1.54723000     -0.020269   -0.43616500   -0.79261700
Se   21.97014000    2.79678000   10.11315000     -0.654597   -0.50230300    0.40749000
Se   19.78114000    6.51804000    0.79820000     -0.080591   -0.15989700    0.90606500
Se   21.14002000   10.39878000   10.35956000      0.036405   -0.33466100   -0.04590800
Se   20.00989000   13.33876000    0.60631000      0.952252    0.44791800    1.25816600
Se   22.84559000   15.68239000   12.18374000     -0.971975    0.92721700   -0.47295400
Se   22.67222000   21.76565000    2.38873000      0.201321    0.48292100   -0.67972700
Se   20.05710000   20.08215000   15.63351000      0.137469    1.06441500   -0.13571000
Se    3.93109000    5.09898000    8.32275000      0.383724   -0.27614000    0.52630600
Se    1.32868000    6.26711000   16.50325000     -0.422267    1.58920400   -0.07346900
Se    3.63116000   11.00351000    8.21167000      1.829717   -0.69591600    0.12894000
Se    3.52868000    9.78364000   18.15545000      0.144994   -0.11368600    0.36780700
Se    4.66364000   19.27035000    7.49987000      0.274674   -1.22518300    0.14062100
Se    0.44983000   17.39251000   16.69552000     -0.167159    0.25746200    0.17289900
Se    2.81230000   21.81564000   11.69915000      0.035049    0.26612500    0.49069700
Se    5.24407000   20.81969000   17.15602000     -0.266363    1.03263800    0.06690300
Se    7.21963000    3.62005000    6.11048000     -0.657190    0.09902700   -1.75106500
Se    6.15620000    3.50882000   17.12407000     -0.040276   -0.47953600    0.58568700
Se    6.37331000   10.71720000    6.02477000     -0.166869    0.28381000    0.94829700
Se    4.83517000    6.63783000   17.44197000     -0.115498   -0.40688100   -1.19067200
Se    6.74771000   16.53321000   10.17523000     -0.185801   -0.36826500   -0.96066500
Se    7.21743000   17.39038000   18.52941000      0.458003    0.02007400   -0.08776200
Se    8.52372000   18.71551000    7.62269000      0.454732   -0.10272200   -0.03627900
Se    6.12931000   22.36899000    0.13535000      0.009970    0.82611400    0.46741300
Se   13.80620000    2.98651000    9.39149000     -0.381968    0.27922600   -0.10723600
Se   13.29820000    4.30440000   17.43301000     -0.855560    0.50033500   -0.16782200
Se   12.96426000    7.95876000   10.17572000     -0.321667   -0.47632700   -0.33882700
Se   13.50830000   11.48420000   15.76576000      0.382885   -0.45267300   -0.24577200
Se   13.00017000   14.33789000    6.70951000      0.456567    1.37936800    0.09895700
Se   13.77166000   15.13861000   17.53071000      0.588748   -1.47912600   -0.58263800
Se   13.29300000   21.43865000    5.78204000      0.233064    0.23240300   -0.69372000
Se   16.39008000   22.12637000   17.29169000      0.419778   -0.18299600    0.88206600
Se   18.09078000    3.57791000    9.29748000      0.113097   -0.47520200    0.12967600
Se   20.18784000    3.73096000   17.68448000     -0.284622   -0.85673300   -1.48671200
Se   19.44904000    9.27820000    7.96129000     -1.053060    0.14888900    1.04680700
Se   16.91179000   10.25148000   15.69989000      0.018362   -0.03539100    0.62085700
Se   15.28224000   16.24186000   10.68510000      0.322576   -0.32089400   -0.69773000
Se   17.96159000   15.00325000   16.52942000      0.486257   -0.51221500    0.61111200
Se   17.78759000   19.47396000    8.82434000      0.084026    0.55430800    0.46994200
Se   19.60258000   19.45546000    2.23441000      1.727330    1.73480900    0.57498500
Se    4.40089000   22.95121000    8.43270000      0.283554    0.25115300    0.06633300
Se    1.97139000    4.14060000   16.38589000     -0.887361   -2.23375700    0.56672400
Se    6.90674000    6.92931000   10.34063000      0.271079    0.91388100   -0.11266700
Se    3.21123000    6.04920000   19.16340000      0.143530    0.32683800    0.10883100
Se    4.03843000   15.51240000    7.04007000     -0.287215    1.34772300    0.16208800
Se    5.70873000   13.55164000   18.85212000     -0.744891    0.03428500   -0.19142100
Se    3.49259000   20.39363000    9.92685000      0.067290    0.05113100   -0.39813700
Se    0.64042000   16.92228000    0.49924000      0.070697   -1.11155800    0.12811900
Se   10.05628000   22.31455000    8.16202000     -1.092111    0.87771000   -0.40455900
Se    9.67429000    3.71423000    0.40752000      0.795199    0.11603700   -0.07737000
Se   11.52091000    4.40026000    9.10622000      0.379271    0.25314000    0.42817600
Se    6.44099000    8.25355000   18.52422000      0.289837    0.53516700    0.37758200
Se   10.94476000   13.91915000    8.67837000     -0.073495    0.67171700   -1.14028200
Se    8.40516000   13.12510000   17.85530000      0.243099    0.60445500   -0.11751800
Se   11.78712000   20.82523000    8.15398000      0.533715   -1.37923400   -0.06685800
Se   11.52533000   14.78506000   16.74357000     -0.004794   -0.08811700    0.79363700
Se   15.83968000    0.63710000    8.20991000      0.848104    0.25412800   -0.58322200
Se   16.12950000    3.16044000   18.18683000     -0.444760   -0.55256000   -0.11143900
Se   15.71410000    5.52910000    9.29350000     -0.816058   -0.24638600   -0.75181600
Se   13.80020000    8.26778000   18.33433000      0.320887   -0.09068100    0.28370300
Se   16.86648000   12.02952000    9.45516000      1.875518   -1.16663300   -0.07946200
Se   16.74984000   13.97749000   19.14801000     -0.288551   -0.33368000   -0.17583000
Se   14.20926000   18.59018000    7.39223000     -0.147977   -0.70422000   -0.70369300
Se   16.56274000   18.88632000   19.01491000      0.235682   -0.16991000    0.72993100
Se   22.71961000   21.42067000    9.23573000      0.489543    1.07083600   -0.38271100
Se   22.85197000    0.63775000   15.30624000     -0.415069   -0.09446000    0.16407400
Se   20.66807000    6.01190000    8.29837000      0.513300    0.04547000   -1.17650900
Se   21.25191000    7.41836000   18.53559000     -0.295762    0.75131000   -1.19838500
Se   21.96460000    9.76552000    6.64216000      1.440527   -0.46125300   -0.35631800
Se   20.62609000   10.83778000   17.11248000      0.435149    0.81484200    0.39904600
Se   19.67994000   16.79863000    7.68194000     -0.298372    0.02868000   -0.04321400
Se   20.03884000   16.17370000   16.74383000     -0.169495    0.00975600   -0.17553800
Se    3.48592000    2.93393000   10.41745000     -0.752607    0.03829200   -0.50921700
Se    2.96766000    0.26436000   14.70326000      0.933315    0.84827300    0.14187200
Se    0.97293000    7.92667000    7.72715000     -0.314560    0.52004400   -0.72926500
Se    1.32006000    9.66500000   17.21745000      0.372397    0.25039600    0.10497700
Se    0.73433000   16.73355000    6.80482000      0.264406   -2.77107700   -0.53333700
Se    1.70466000   13.75154000   16.98248000      0.563263   -1.31175400   -0.13869100
Se    0.31184000   18.86071000    7.17209000     -0.488966    2.17983500    0.69226900
Se    2.43701000   20.66519000   16.04567000      0.626442    0.39862900   -0.34421100
Se    7.84608000   22.88554000    6.07961000      1.710918    1.76159700   -0.58752900
Se   10.45021000    0.69569000   17.86943000      0.114293    0.46352700   -0.46633400
Se    7.68307000    7.26368000    5.94909000      0.073435    0.01426500    0.35470900
Se    6.68480000    7.03139000   15.34013000      0.141293   -0.12380500   -0.75717300
Se    7.34236000   14.14586000    6.52572000      0.698331    0.06123000   -1.00233700
Se    8.98059000   17.01409000   13.92676000      0.179972   -0.43673900   -0.05534200
Se    5.73706000   19.18228000    4.42879000      0.396360    0.07929700    0.30032600
Se    7.41224000   15.52210000   14.91857000     -0.065453   -0.06498700    0.39605400
Se   15.06945000   21.85872000    3.75312000     -1.056373   -1.06194800    0.83586400
Se   14.17291000    1.31721000   16.49253000     -0.167682    0.33815500    0.48806900
Se   13.23202000    7.56249000    6.12467000     -0.453663    0.08531500    0.27860000
Se   10.86116000    7.00112000   15.26012000      0.899809   -0.22385600    0.92168100
Se   12.91385000   11.73131000    5.63858000      2.159460    1.40466100   -1.77400300
Se   14.73566000   14.24572000   13.48456000     -0.392982   -0.63183800   -0.34410400
Se   10.33117000   16.93601000    5.64429000      0.261634   -0.84448300   -0.09491800
Se   13.71954000   19.89767000   17.20795000      0.152812   -0.54816200   -0.19758000
Se   20.04867000    1.26658000    4.73487000      1.333415    0.13633100   -0.56069300
Se   18.74680000    0.44117000   17.58614000     -0.011008   -0.26446300   -0.13079000
Se   17.85088000    4.06727000    5.91741000     -0.874091    0.17285900    0.07394400
Se   17.92739000    6.72695000   16.24451000      0.462020   -0.26972700    0.19295100
Se   20.06110000   10.55354000    5.07421000      0.742655    0.00086900   -1.05199000
Se   17.33801000   13.52706000   13.04477000     -0.390228    0.85083500   -0.45937800
Se   17.06213000   18.63527000    6.12064000     -0.764887    0.01438500   -0.50960300
Se   17.41934000   22.61766000   14.10317000      0.135185    0.90649500   -0.04063000
Se    3.84217000    7.16470000    7.13783000     -0.753896   -0.44919700   -0.53175800
Se    3.26055000    4.59668000   13.26401000     -0.736065   -0.41128100    0.26146200
Se    3.51116000    9.76739000    4.24843000     -0.552978   -0.98618900   -0.18284200
Se    5.62397000   12.06634000   15.55538000     -0.251747   -0.43718500   -0.62697700
Se    5.14326000   13.50545000    7.00762000      0.004067   -1.40696400    0.22507000
Se    4.04896000   17.84268000   18.09027000     -0.001159    0.04341300   -0.00840900
Se    1.88979000   21.95363000    6.07332000     -0.623520    0.20537200    0.16820400
Se    5.19379000   22.30430000   13.75860000     -0.200986    0.34615000    0.42568800
Se   11.11574000    2.80063000    6.41449000     -1.250116   -1.18123200    0.24361400
Se    9.55467000    3.89133000   16.16680000      0.093193   -1.01012800   -0.50755000
Se   11.15724000   10.55500000    6.23537000     -2.635554   -1.31209000    1.35994000
Se   10.30578000   11.90013000   15.06401000     -0.979008    0.47272900   -2.11671700
Se    8.65055000   14.94547000    9.19232000      0.016938    0.37095400    0.26601500
Se   12.15741000   18.23742000   16.31971000     -0.206854    0.44895900   -0.43432400
Se   10.10536000   20.04125000    4.08651000      0.348126    0.44368100    0.85562100
Se    8.21225000   20.63765000   17.59627000     -1.029214   -0.57546500    0.32383000
Se   14.19232000    4.19592000    5.38719000      0.293183   -0.23078600    0.28245000
Se   18.20597000    2.78164000   14.90810000     -0.203728    0.26204400   -0.01056700
Se   15.74585000    9.12420000    6.62155000      1.059023    1.07876100    0.15105400
Se   17.76148000    9.94216000   12.51581000      0.082171   -0.46444100   -0.66252100
Se   17.72225000   12.37249000    5.66113000      0.103594    0.75828200   -1.05296700
Se   16.63638000   18.22630000   16.05847000      0.120742    0.12767300    0.24086400
Se   15.38316000    0.87666000    4.62120000      0.819191    1.22625800    0.47172600
Se   18.69278000    3.56747000   12.70958000      0.321874   -0.13488600    0.38849300
Se    0.23424000    3.84450000    7.63683000      0.155419   -0.26683300   -0.01249700
Se   22.62914000    3.58362000   13.85703000     -0.138197    0.16409500    0.41277700
Se   19.63477000   13.02211000    8.44642000     -0.452432   -0.49522400    0.36738100
Se   22.48359000   11.59159000   15.83832000     -0.425641    0.20673200    0.01127400
Se   21.31416000   13.47795000    6.90156000      1.151237    0.60729500    0.19228700
Se   20.83781000   18.25593000   14.48578000      0.408793   -0.88334400   -0.61584300
Se   19.09280000   21.22250000    7.35563000     -0.407692   -0.71102500   -0.06921100
Se   22.48018000   21.25409000   18.08556000     -0.904003   -0.10694200    0.08971000
Se    3.33922000    2.86760000    6.11217000      0.022348   -0.35460000    0.56368100
Se    6.28527000    0.97151000   16.96587000     -0.138644    0.59759400   -1.06048800
Se   22.64183000    4.01429000    0.39969000     -0.025484    1.47550700   -0.14601900
Se    4.80746000    9.56280000   11.35453000     -0.360573    0.23923200   -0.30904500
Se    1.68158000   11.93776000    3.05736000     -0.065191    0.79167100   -0.50228400
Se    3.99629000   15.82758000   15.43399000      0.568502   -0.17139800    0.43161000
Se    4.66747000   16.12824000    1.58731000      0.270082   -0.38346800    0.12408800
Se    5.81511000   18.01540000   12.75231000     -0.459385    1.11736200    0.27089000
Se   10.78158000    1.03066000    2.56090000      0.188080    0.19308300    0.88601300
Se   11.80443000    1.40314000   13.84082000     -0.459981    0.12798800    0.23922100
Se   10.04818000    9.04259000    2.78838000     -0.041077   -0.53096800   -0.32005900
Se    7.95696000    8.78689000   16.37686000      0.025477   -0.04294200   -0.27452300
Se    9.21378000   12.40688000    3.80138000      0.553718   -0.22258000    0.17365000
Se    9.79583000   12.36522000   11.70385000      0.430069    0.00418500   -0.54471400
Se    8.76309000   20.87204000    2.44079000     -0.326091    1.17803100   -0.87997100
Se   11.36777000   19.02142000   13.84868000     -0.136713   -0.16502600    0.78787300
Se   18.25883000    1.10197000    6.06202000     -1.205642   -0.34440700    0.75902500
Se   14.56586000    2.36330000   13.10908000     -0.933289    0.23688000   -0.85251500
Se   15.86863000    6.77483000    3.73853000      0.382471    0.24487500    0.23819300
Se   15.14020000    5.14812000   14.78737000      0.729956    0.46800700    2.12193700
Se   14.61355000   13.40389000    2.76818000      0.253327   -1.28979300   -0.13023000
Se   17.38524000   16.49896000   14.57635000      0.114854    0.42082700   -0.71333100
Se   15.66541000   15.88328000    4.52691000     -1.536018    0.15555400   -0.94486300
Se   16.86263000   20.37450000   14.47783000     -0.461449   -0.51475200   -0.60471000
Se   22.76815000    0.44950000    5.66647000      0.159101   -0.45048600   -0.66072900
Se   20.83345000   22.94470000   12.38762000     -0.016061    0.98910400   -0.14939900
Se   21.17886000    5.24182000    4.94212000      0.155456    0.07901200   -0.75451900
Se   21.18549000    8.73931000   14.43245000     -0.233303   -0.01936300   -0.09567500
Se    1.32912000   13.71653000    6.18466000     -0.795054   -0.40647200   -0.88323900
Se   21.71123000   14.35491000   16.33390000      0.072147   -0.52939200   -0.09827000
Se   21.87199000   19.00241000    5.26620000      0.206377    0.74749400   -0.76697200
Se   21.33703000   19.36464000   10.23727000      0.441154   -0.10534200    0.17686200
Se    0.48670000    5.00991000    5.58416000     -0.079948   -0.53692100    0.07502400
Se   21.59744000    5.92600000   14.63774000      0.357993   -0.45093000   -0.61452200
Se   21.14962000    9.92159000    3.02896000      0.233253   -0.22037700    0.02000200
Se    0.78981000   11.67841000   12.50402000      0.640724   -1.04158400   -0.05347400
Se    1.13901000   14.24436000    1.11016000     -0.166755    0.24482700    0.98950500
Se    0.68130000   21.10920000   12.35788000      0.119790   -0.14688300    0.29761400
Se    3.59844000    0.41935000    4.03825000      1.028391    0.04105300    0.11175000
Se    3.56470000   18.81323000   14.09441000      1.008852    0.03753400   -0.21674500
Se    9.57826000    6.24027000    7.24478000      0.217055    1.07473800   -0.04962700
Se    7.17676000    4.05250000   13.07645000     -0.282775    1.03781000   -0.27498800
Se    5.85826000    6.39580000    4.08015000     -0.176302    0.61826000   -0.33984700
Se    8.15935000   10.48228000   12.87490000     -1.192989    1.17054500   -1.40946900
Se    8.21926000   17.45431000    3.36958000     -0.522453    0.03201500    0.03164000
Se   12.21363000   14.86063000   13.78496000     -0.247657   -0.29989900   -0.38140600
Se    6.48516000   21.12134000    6.54667000     -0.663856   -1.65124800    0.08684400
Se    7.93257000   21.57502000   13.97936000      0.266007   -0.05697400    0.30346300
Se   12.79203000    2.19070000    3.57644000     -0.160706   -1.15752900   -1.14594700
Se   10.73477000    2.96074000   12.16094000     -0.449948   -0.22245700    0.06372300
Se   13.84986000   10.56003000    3.55742000      0.821916    0.40615700   -0.37780400
Se   11.95428000    9.14458000   12.91432000      0.120839    0.76651800   -0.05786600
Se   12.11602000   15.22528000    3.00551000     -0.357781   -0.45417600    0.07784200
Se   14.73334000   17.80054000   12.30633000     -0.128344    0.46882100    0.00069300
Se   13.53471000   19.06034000    1.59020000     -0.002537    0.03619300    0.22220400
Se   13.48130000   22.43770000   15.28985000     -0.092607   -0.63888900   -0.52190800
Se   17.22755000    5.61025000    1.06068000     -0.246878   -0.13807500   -0.08058400
Se   16.80656000    6.62098000   12.89646000     -1.256109   -0.16470700   -0.04775500
Se   17.74954000    8.42505000    3.81694000     -0.432260   -0.37673400   -0.37556200
Se   21.01080000   12.90319000   12.72821000     -0.771722   -0.50111000    0.96913000
Se   21.97791000   15.53252000    3.89568000      0.487431    0.18275400    0.63296400
Se   19.06009000   15.81728000   10.80267000      0.187776    0.85878200    0.60157400
Se   19.23143000   21.37224000    3.96255000     -0.168509   -1.11832000   -0.29441500
Se   16.61593000    0.64172000   11.36527000     -0.048937   -0.37537800    0.74955600
