384
23.00800000 23.00800000 19.32000000
Ge    5.27023000    5.26743000   10.93060000      0.404459   -0.68914400   -0.81711800
Ge    4.74617000    5.80845000    1.55422000      1.479825    1.00540500   -0.15601400
Ge    1.50494000   11.81291000    8.18215000     -0.118453    0.24096600   -0.39698900
Ge    6.22572000   11.31646000   17.91242000      0.344256   -0.50245000    0.30738200
Ge    4.29781000   14.96473000    9.84768000     -0.203452    0.39447300    0.34526800
Ge    8.58850000   18.59346000    1.13666000     -2.140426   -0.26732000   -0.01335200
Ge    9.19360000   20.14110000    9.34944000      0.035333    0.56010400    1.22021100
Ge    4.93388000    1.48709000    0.07171000     -1.062443    1.94085400   -0.34475900
Ge    8.51854000    5.13755000   11.09375000     -0.142580   -0.43462200    0.78309600
Ge   11.58959000    5.37154000    0.82334000     -0.242306   -0.33093000    0.09445900
Ge   10.59526000   11.51011000    9.12963000      1.419192    1.37445100    0.63310400
Ge   10.47396000   11.91228000   17.43467000      1.505142    0.99442800   -0.34134000
Ge   10.15188000   17.03661000    8.00681000     -0.150957   -1.23252100   -0.08912000
Ge   11.95095000   14.60494000    0.38543000      0.047882    0.47629800   -0.34708000
Ge   10.25071000    1.90802000    9.56708000      0.474233   -0.16825100    0.52537000
Ge   15.41888000   21.42870000    0.32771000      0.042413   -1.04245100    0.56495200
Ge   19.14013000    5.71093000   10.00932000     -0.464054   -0.13790600    0.08738400
Ge   19.27693000    9.11268000   15.94371000     -1.330020   -0.23167800    0.80359200
Ge   21.22670000   14.22947000   10.57607000      0.182040    0.04877900    0.48568600
Ge   16.59026000   11.27728000   18.44460000      0.426932   -0.41034100    0.63916700
Ge   13.92347000   16.36338000    8.34580000     -0.130048   -0.07552300    0.97067200
Ge   18.25292000   15.09394000    1.44444000     -0.724293    0.01383700   -0.64743700
Ge   18.16174000    0.78274000    9.43663000      1.020846    0.23218800    0.14798400
Ge   17.64460000    2.05114000    0.75075000      1.157882    1.74097200   -1.36525600
Ge   22.15237000    5.31088000   10.21769000      1.841769   -0.11205900   -1.68595300
Ge   20.08379000    3.77012000    0.76329000      0.263277    0.23606500   -0.24264200
Ge    0.61046000    9.70559000    9.60543000     -0.020269   -0.00663800    0.85667100
Ge    1.31953000   11.93967000   18.83161000     -1.721356   -0.08049900    0.00149500
Ge   21.78143000   15.73289000    8.13707000      1.348720   -0.75937800   -0.08242600
Ge    2.16966000   15.95177000   17.78099000      0.180960    0.84244700    0.05101000
Ge   20.13568000   21.60267000    9.71637000      0.043493   -0.11239000    0.70006900
Ge    1.55717000   22.07473000    0.07111000      0.127264   -0.02623800    0.70122400
Ge    5.49616000    8.91213000    7.98643000      0.014691    0.24916700    0.02654500
Ge    0.39876000    6.42688000   18.91693000      0.164388   -0.70781100   -0.15812400
Ge    0.76914000    8.59474000    5.26451000      0.163010    0.05560400   -0.51809900
Ge    4.33225000   13.60950000   16.81391000     -0.359763    0.33693600    0.24757800
Ge    4.45809000   18.29799000    2.47732000     -0.793828    1.56477800    2.78045000
Ge    2.23080000   19.68307000   18.17705000     -0.368044   -0.88280300    0.46861500
Ge    5.46932000   18.92291000    9.70742000      0.497663    0.43611300    2.03298900
Ge    3.51495000    0.07489000   17.42115000      0.587811   -0.47436600   -0.49921000
Ge    9.21360000    4.07629000    7.45654000     -0.570812   -1.11491800    0.38031500
Ge    8.19063000    5.37059000   17.60298000     -0.217950   -0.26050000   -0.37850200
Ge    6.78348000   12.83025000    4.21503000      0.227583    0.39878400    0.23032300
Ge    8.19035000    7.79677000    1.05372000      0.878766    0.51931400    1.16461600
Ge    6.27173000   16.89192000    7.39399000      0.057996    0.22904200    0.03275700
Ge    8.67288000   15.61294000   17.17537000      0.113026    0.64492500   -0.38397700
Ge   10.66691000   22.96482000    5.17677000     -0.145144   -0.04881600   -0.39101000
Ge   11.30497000   21.65540000   14.13496000     -0.645836    0.62367500   -0.25924400
Ge   13.37435000    6.22015000    8.32757000     -0.142539   -0.04377700    1.04779200
Ge   13.80664000    6.76590000   16.71735000     -0.233436   -2.33873700   -2.15965300
Ge   13.41887000    9.90183000    7.45868000      0.105382   -0.32616000    0.20939900
Ge   15.26119000   13.20152000   15.66088000      0.035976   -0.38438500    1.66005100
Ge   13.57207000   16.88796000    5.38900000     -1.448259    0.52746600   -0.00665300
Ge   13.88847000   17.59290000   18.89193000      1.045921    0.20569300   -0.25916900
Ge   13.90821000   22.26215000    8.41584000     -0.322747   -0.11917000    0.52179900
Ge   16.06423000    1.60175000   14.99766000      0.483396   -0.11528100   -0.85442000
Ge   20.01824000    3.55467000    6.40984000      1.582711   -0.25184600    1.35339300
Ge   20.19891000    5.97932000   16.48242000      0.066314   -0.29582300    1.69017300
Ge   17.49300000   10.61017000    7.44761000     -0.668970   -0.60300500    0.19085800
Ge   19.83234000   13.38577000   17.53648000     -0.289641   -0.66729600    0.50859100
Ge   17.83193000   16.41019000    5.42896000      0.963379    0.27597200   -0.01123600
Ge   18.46867000   20.77378000   17.58787000      0.298429   -0.78533800    0.45550200
Ge   21.77471000    1.53639000    7.67188000     -0.206985    0.00502700   -0.61200900
Ge   19.03143000   22.10932000    0.51814000      1.862874   -0.29126000   -0.10272200
Ge    5.25576000    2.82652000    7.52781000      0.014638    0.37411000    0.09640200
Ge    4.13132000    4.60076000   15.98080000      0.642761    0.76462300   -0.59382700
Ge    3.46670000    6.94533000    4.27623000     -0.598629    0.60668000    0.37516600
Ge    2.67610000    9.94564000   12.83241000      0.129046   -0.65460600    0.21827600
Ge    1.72772000   15.38862000    3.41321000     -0.641524   -0.19981100   -0.10933700
Ge    0.79670000   18.95126000   14.87412000     -0.016976    0.18090800   -0.16575100
Ge    2.37304000    1.46397000    8.29852000      0.563103    0.21193500    0.05021500
Ge    5.43093000   18.40859000   15.89764000     -0.312396    0.13265800   -0.42932900
Ge    9.18194000    3.16603000    2.81952000      0.240582   -0.32420100   -0.74532800
Ge    9.62744000    1.10002000   15.47505000     -0.171355    0.55305700    0.14263200
Ge    8.48942000    9.55048000    5.31710000      0.762454    0.58705800   -0.30719900
Ge    9.79455000    9.31081000   14.23078000     -0.668323    0.29219800   -0.15900900
Ge   10.94256000   14.18609000    5.01229000     -0.242258    0.89211100   -0.02496300
Ge   12.09304000   11.95823000   13.45217000      0.133572    0.30609200    0.50164200
Ge    5.77989000   21.61959000    2.75136000      0.005291   -0.60634400    0.44146200
Ge    9.33695000   18.87023000   15.89040000      0.399369    0.18995300    0.16401300
Ge   13.54964000    1.48882000    6.41553000      0.489065    0.28986800   -0.60953500
Ge   11.74387000    4.73373000   15.41722000     -0.193046   -1.13324900   -0.38868000
Ge   15.69087000    6.54474000    6.35579000     -0.304158   -0.60536800   -0.26115100
Ge   14.71175000    8.98691000   14.59030000     -0.122709    0.46108100    0.27400500
Ge   15.37951000   13.44983000    5.65489000     -0.348261   -0.14849000   -0.50711500
Ge   14.99780000   16.65384000   14.43331000     -0.830151    0.28655300    0.98733100
Ge   11.36678000   17.71273000    3.05412000      0.394363    0.16152400   -0.15643200
Ge   10.26944000   21.46700000   16.90227000      1.034633    0.67470200   -0.22121100
Ge   18.04960000    5.43429000    3.73486000     -0.437788   -0.01522900   -0.50624400
Ge   21.07839000    2.57197000   12.32785000     -0.624528   -0.65066600   -0.11386500
Ge   20.00328000    8.19206000    5.82333000     -0.121967    0.00812500   -0.05414900
Ge   18.39540000   11.73709000   14.17132000      1.184326   -0.54567200    0.36078500
Ge   21.43192000   15.70642000    1.64230000      0.608664   -0.36090200   -1.29835700
Ge   19.35231000   14.89932000   13.19733000      0.216310   -0.54847900   -0.28486400
Ge   19.31247000   19.48521000    5.49747000      0.319257    0.45836000    0.19004400
Ge   22.36424000   21.42436000   15.47390000      0.174999   -2.24227800    0.55102800
Ge    5.69958000    2.41113000    3.69356000     -0.283564    0.26231000    1.03652400
Ge    5.37643000    1.70593000   14.33448000     -0.178358    1.16443500    0.94263400
Ge    5.91491000    9.26061000    4.02620000     -0.936945   -0.76847300    0.72904500
Ge    6.58270000    8.62346000   12.99610000     -0.611543   -0.39792700   -1.02206300
Ge    6.58227000   15.44047000    3.12487000      1.220965   -0.14045900   -0.29919200
Ge    3.80798000   13.91382000   13.63503000     -1.074004    0.36594000   -0.25883900
Ge    5.35487000    0.35834000    5.95491000      0.414562   -0.57202200    1.19510900
Ge    7.55165000   20.14858000   12.40761000     -1.356795   -0.33342200   -0.75507600
Ge   11.67030000    4.25066000    4.53910000      1.217388   -0.53728100    0.13430500
Ge    8.07642000    2.06700000   13.05367000      0.221328   -0.85951500   -0.28150500
Ge   11.38355000    9.12499000    0.62218000      0.471161   -0.24084900    0.45022700
Ge   11.91365000    6.79892000   12.99165000      1.222939   -1.98402600    0.60529100
Ge    9.59938000   13.14739000    1.41550000      0.253880    1.57932700    0.87085100
Ge    8.90947000   14.80717000   11.76828000     -0.478765    0.09035600    0.31896500
Ge   12.25154000   20.41039000    0.16115000     -0.747721    0.25759700   -0.65479800
Ge   12.16319000   19.66616000   11.01973000      0.104816    0.42093300    0.09351000
Ge   21.58013000    0.70763000   17.70982000      0.005205   -0.11595600   -0.15563900
Ge   14.66279000    5.39492000   12.53033000     -0.027867    0.26368200   -0.44591900
Ge   17.32505000    8.29900000    1.27758000      0.858363    0.31460000    0.06716300
Ge   14.97795000    9.40574000   10.05935000     -0.431582    0.03964200   -0.24823400
Ge   16.71853000   11.85635000    3.08304000      0.490938   -0.47857400   -0.01521500
Ge   17.94107000   14.70963000    8.77202000      0.503474    0.26465300    0.43790600
Ge   17.84525000   18.03010000    2.07983000     -0.756113   -0.40740800   -0.53842900
Ge   15.96137000   21.16659000   12.07240000     -0.167904   -0.72914900   -0.76654900
Ge    0.43584000    1.97584000    1.68015000     -0.460274   -0.20735400   -0.57185900
Ge    0.08165000    0.17988000   11.29531000      0.074825   -0.82931600   -0.24445900
Ge   21.90671000    7.08401000    3.12283000     -0.127701    1.05499300   -0.64461500
Ge   22.26152000    9.55637000   12.42401000      0.322070    0.84478100    0.76527000
Ge   22.26343000   12.97944000    4.32802000      0.549703   -0.16419700   -0.09719900
Ge    1.23517000   16.33932000   10.16124000     -0.352494   -0.49815200    0.54331300
Ge    0.89630000   20.62248000    4.11843000     -0.097417   -0.47521000    0.17096500
Ge   20.80715000   17.65413000   11.86298000      0.517820   -0.57691900    0.43991100
Se    0.93813000    1.28341000   18.25501000      0.612719    0.95418600    0.93993600
Se    1.35750000    3.74288000   11.86031000      0.031032   -0.85804500   -1.01333300
Se    1.03891000    7.12301000    1.77090000     -0.071773    0.68462400    0.95047400
Se    0.37477000    7.65948000   11.64105000      1.335438   -0.12579100   -0.06381400
Se    3.31399000   11.35368000    0.59999000      0.938428   -0.56307600    0.48634500
Se    1.98064000   13.93846000    9.44796000     -0.572262   -0.18008200    0.37642500
Se    1.92770000   18.66377000    3.09634000      0.272177   -0.64726200   -0.22430000
Se    1.46464000   18.73155000    9.79749000      0.088291    0.31653200    0.00036600
Se    7.17703000    1.86382000    1.88537000      0.703965   -0.07285300   -0.20710600
Se    7.61541000    1.48436000   10.38456000      0.197166   -1.18312200    0.76994500
Se    7.30093000    5.54877000    0.82264000     -1.244815   -1.04403400    0.93417200
Se    9.83156000    6.92532000   11.95267000     -0.612691    0.88453700   -0.40984100
Se    8.37693000   11.24678000    0.82652000     -0.956639   -1.00421200   -0.71957600
Se    5.96526000   13.68851000   12.64011000      0.449934   -0.16163300   -0.84265600
Se    4.91546000   20.00878000    1.10925000      0.069495    0.96990800   -1.50647700
Se    9.33910000   18.73255000   11.80685000      0.347710   -0.24592700   -0.72952800
Se   14.39867000    2.69448000    0.26329000     -1.072515   -0.66308500    0.28486300
Se   12.86879000    0.87425000   10.21479000     -0.385308    0.15570600    0.28279800
Se   10.08404000    6.93954000   18.96084000      1.250374    0.88001300   -0.44936100
Se    9.38535000    9.49318000    8.66432000      2.049204   -2.78777500   -1.03231300
Se   11.79609000   12.14476000    0.59276000      0.372117   -0.30746200   -0.15768100
Se   12.98782000   11.29156000   10.45806000      0.732390    0.30332400   -0.30430000
Se   15.37339000   15.42180000    1.96411000      0.399561    0.65707300   -0.58667800
Se   11.75896000   17.17732000    9.77628000      0.264921    0.40418100   -0.35207200
Se   16.64558000    3.32153000    2.48753000     -0.123662    0.97974000    1.18699600
Se   16.13158000    3.15337000   11.14953000     -0.397688    0.21242600    0.00480200
Se   15.99501000    7.01908000   18.05076000      0.236279    0.24103100   -0.08854400
Se   20.75807000    6.46290000   11.63228000     -1.606871    0.63171900    1.72192300
Se   18.75617000   10.15008000    0.21023000     -0.989927    0.03200500   -0.20457000
Se   16.32830000   15.32185000    7.12331000     -0.465262    0.45585200    0.51062700
Se   19.73333000   17.17586000    0.39830000     -0.502481    0.06190100    0.84277200
Se   17.94791000   19.79662000   11.15898000      0.236910    0.07815800   -0.11456800
Se    4.08578000    3.73945000    2.24468000     -0.867914   -0.70346900    0.44459500
Se    3.83158000    6.61377000   12.19657000     -0.717132    0.10097200    0.84701700
Se    6.50982000   10.01265000    1.88077000     -0.552303    0.61789400    0.10132500
Se    4.89870000   12.67348000   10.55944000      0.592517    0.06259800    0.89263000
Se    4.48654000   15.58447000    4.33258000     -0.951679    0.59384500    0.21936500
Se    3.06457000   16.33250000   11.83489000      0.975950   -0.80061300   -0.21788900
Se    2.86475000    1.15967000    1.81382000     -0.114638   -0.54894400   -0.51059700
Se    6.92074000   21.15984000   10.01347000      0.282454   -0.89499800    0.72008800
Se   11.10979000    6.24283000    3.09635000     -0.281093    0.45048200    0.15252300
Se    7.19652000    3.47641000    9.45651000     -0.136410    1.01590200   -0.53099000
Se   10.38890000    9.64329000   17.78707000     -0.142282   -0.72393000   -0.34076700
Se    7.62998000   10.57718000    9.16186000     -3.508168    1.85103500    0.79516900
Se   10.53740000   17.57098000    0.65253000      1.338190   -0.50647900   -0.63208300
Se   11.42109000   14.82283000   11.42679000      0.602853   -0.57041800   -0.23920900
Se   13.36407000   22.48419000    0.97848000     -0.230207    0.43463300   -0.14243500
Se   11.19534000   21.97291000   11.38249000      0.038177   -0.56905200    0.73658800
Se   13.94962000    4.67913000    1.36457000      0.044811    0.60097600    0.50976100
Se   17.11027000    7.25327000   10.21283000      0.332843    0.53415200    0.50937400
Se   15.16385000    9.27955000    1.40224000     -0.506685    0.81696700   -0.19850500
Se   15.43138000   10.22675000   12.49864000      0.434165    0.13417000    0.08345800
Se   18.92575000   13.90973000    3.43193000     -0.731216   -0.13430500    0.66267100
Se   14.74293000   13.00112000    9.74252000     -0.512356   -0.24627400   -0.11364400
Se   17.04241000   22.93063000    1.51799000     -0.984937   -0.85518300    1.61307600
Se   14.37423000   20.19230000    9.77968000      0.691746    0.43643000    0.67830700
Se   20.76098000    1.17945000    1.40621000     -0.113386   -0.56771600   -0.54313800
Se   21.92820000    2.77516000    9.90848000     -0.407201    0.13979900    1.63983200
Se   19.74498000    6.45539000    0.71870000      0.315426    0.06923800    0.75048600
Se   21.29201000   10.34005000   10.49976000     -0.867764    0.21557300   -1.20755900
Se   19.95718000   13.50107000    0.74634000      1.728028   -0.27021200   -0.46310100
Se   22.89781000   15.67735000   12.19562000     -1.218914    0.69065500   -0.67059000
Se   22.82295000   21.72633000    2.34755000      0.132246    0.46375100   -0.51093300
Se   20.08056000   20.25261000   15.58872000      0.078274   -0.22984400   -0.46139700
Se    3.93403000    5.16406000    8.33212000      0.238405   -0.60556100    0.73008400
Se    1.27962000    6.45198000   16.50564000      0.071226   -0.28589900    0.06645000
Se    3.76644000   10.87703000    8.22049000      0.213229    0.28173900    0.18823600
Se    3.64997000    9.72529000   18.10118000     -0.394383    0.13017500    0.16896300
Se    4.67845000   19.08255000    7.55798000     -0.019526   -0.68060100   -1.67237000
Se    0.40297000   17.39188000   16.78657000     -0.300067    0.34856000   -0.01116100
Se    2.90893000   21.79401000   11.71399000      0.181735    0.80493800    0.76442600
Se    5.46284000   20.82933000   17.27155000     -0.265323    0.64909600   -0.38000400
Se    7.20719000    3.59257000    6.09604000      0.014192    0.13282500   -0.84626900
Se    6.08831000    3.62193000   17.09161000      0.462769   -0.79044800    0.56679600
Se    6.29581000   10.74006000    6.04174000      0.491160   -0.30319100    0.41136700
Se    4.82186000    6.80276000   17.24118000     -0.265462   -0.38291000   -0.44531100
Se    6.58727000   16.58268000   10.11118000     -0.115107   -0.14848900   -0.84551900
Se    7.15929000   17.39325000   18.59663000      0.379111    0.03170000    0.03975600
Se    8.50068000   18.66759000    7.60905000     -0.537722    0.43088000   -0.64153000
Se    6.10702000   22.55729000    0.21749000      1.190900   -1.51313900    0.56944400
Se   13.87532000    2.91290000    9.50183000      0.084399    0.75278300   -0.15874300
Se   13.21218000    4.36810000   17.35392000     -0.374344    0.75198700   -0.00032800
Se   13.00704000    7.84400000   10.15586000     -0.135843    0.20840200   -0.14372700
Se   13.46962000   11.46344000   15.74136000      0.389940   -0.36307700   -0.36454600
Se   12.95955000   14.42595000    6.57335000      0.724301    1.12536100    0.50289200
Se   13.82462000   15.22030000   17.29230000     -0.262268   -1.17323400   -0.40870300
Se   13.16413000   21.46737000    5.82912000      0.302306    0.02650800   -0.78035700
Se   16.43373000   22.09897000   17.57296000     -0.325196    0.70992600   -1.23217800
Se   18.16914000    3.57955000    9.17159000     -0.202003   -0.53417300    0.35711400
Se   20.16956000    3.84852000   17.55065000     -0.043426   -0.92958900   -0.19263800
Se   19.21643000    9.09818000    8.03900000     -0.214589    0.02362700    0.59432900
Se   16.98065000   10.23146000   15.69135000     -0.425423    0.13064600    0.88335600
Se   15.23102000   16.33796000   10.70254000      0.506139   -1.17364600   -1.35242100
Se   18.05808000   15.03897000   16.33103000     -0.274555   -0.58803400    0.37025200
Se   17.91916000   19.31979000    8.84917000     -0.420461    0.63845000    0.02156500
Se   19.70990000   19.52473000    2.25000000      0.792994    0.20166300   -0.20739600
Se    4.43059000   22.80473000    8.36977000     -0.438425    1.21408000   -0.43968200
Se    1.77258000    4.11096000   16.37076000     -0.815860   -0.08139300    0.64475600
Se    7.04600000    6.98870000   10.41889000     -0.357490    0.35479300    0.28958900
Se    3.17349000    6.05037000   19.01259000      0.539676    0.21160100    0.13982800
Se    4.03158000   15.58751000    6.89399000     -0.375794    0.77726500    0.51257200
Se    5.72753000   13.56456000   18.82316000     -0.833394    0.80893300    0.23352700
Se    3.37071000   20.43402000    9.91330000     -0.091825   -0.47588100   -0.86996600
Se    0.55272000   16.84283000    0.49952000     -0.367415   -0.58169500    0.51930700
Se   10.03007000   22.35880000    8.27632000     -0.034249   -0.05503300   -0.72747000
Se    9.73226000    3.83742000    0.22281000      0.209885   -0.99789400    0.90110900
Se   11.60499000    4.63154000    9.12326000     -0.001139    0.08108300    0.11312400
Se    6.58074000    8.27326000   18.68150000     -0.657721    0.49896500   -1.02616800
Se   10.98240000   13.99723000    8.71039000     -0.541488   -0.21326700   -0.80307900
Se    8.47928000   13.11098000   17.84022000     -0.610068    0.07195900    0.40464400
Se   11.90886000   20.75223000    8.00859000     -1.123851   -0.04837500    0.04608400
Se   11.53750000   14.70577000   16.65518000      0.245723   -0.04124100    0.87684500
Se   16.05193000    0.50911000    8.33857000      0.312848    0.23295600   -0.83296700
Se   16.13055000    3.06173000   18.12893000      0.851285    0.06958700    0.03892100
Se   15.70472000    5.62308000    9.36457000     -0.375883   -0.77772700   -0.58980000
Se   13.82624000    8.31848000   18.32271000     -0.230548    1.89837100    1.99162000
Se   17.05393000   12.20764000    9.44696000     -0.930187   -0.59647800    0.44856600
Se   16.79997000   13.92914000   19.07103000     -0.338417   -0.33868000   -0.11732000
Se   14.39527000   18.53449000    7.36848000     -0.036388   -0.32573500   -0.73816300
Se   16.65139000   18.68737000   19.14444000      0.065537   -0.12693800    0.41619100
Se   22.57566000   21.50626000    9.21823000      0.276153    1.19187700   -0.15845500
Se   22.93531000    0.57381000   15.19101000     -0.272599    1.49804500    0.06023700
Se   20.69468000    6.10697000    8.29278000     -0.049023   -0.09874800   -0.79470200
Se   21.26728000    7.45868000   18.47843000     -0.298278    0.49133800   -0.74249800
Se   22.03651000    9.66816000    6.65421000      0.288186    0.24820500    0.15890500
Se   20.85746000   10.76605000   17.13243000     -1.308623    0.39221100    1.80640200
Se   19.76987000   16.67769000    7.61463000     -1.305111    0.71598400   -0.33983900
Se   19.98199000   16.20422000   16.89306000      0.538496   -0.39987400   -0.09047600
Se    3.36266000    2.86768000   10.48229000     -0.475688   -0.33871800   -0.84554100
Se    2.98418000    0.31498000   14.85745000      0.558394    1.15441000   -0.14741400
Se    0.88455000    8.04079000    7.69631000     -0.099820   -0.35424700   -0.17403100
Se    1.34058000    9.73118000   17.14635000      0.687262    0.15214800    0.17177600
Se    0.80122000   16.58516000    6.72785000     -0.418984   -0.37520100    0.27852600
Se    1.61507000   13.61784000   16.94687000      0.903594   -0.71532600   -0.51926300
Se    0.30311000   18.89702000    7.10371000      0.139648   -0.17314900    0.53096200
Se    2.37089000   20.70854000   16.00913000      0.251073   -0.48146300   -0.34133100
Se    7.93798000    0.00497000    6.07459000     -0.291067    0.21707800   -0.05479000
Se   10.49143000    0.79589000   17.72172000      0.466228   -0.54111900    0.07342900
Se    7.74282000    7.33514000    6.01490000     -0.326590   -0.80586300    0.53839900
Se    6.78380000    7.05395000   15.35807000     -0.145261   -0.59412900   -0.83332700
Se    7.47607000   14.13888000    6.38333000     -0.625342   -0.20948400   -0.70796700
Se    9.03810000   17.08792000   14.03324000      0.057768   -0.45773600    0.15258600
Se    5.54726000   19.32028000    4.46924000     -0.148580   -0.03433600   -0.08880800
Se    7.64564000   15.28789000   14.78992000      0.052242    0.07842200    0.73887300
Se   14.99346000   21.83456000    3.77813000     -0.738572   -0.80793400    0.37496700
Se   14.14009000    1.32712000   16.55321000      0.448888    1.17382800    0.98175400
Se   13.13818000    7.56168000    6.35079000     -0.174743   -0.32604700   -0.50760800
Se   10.90350000    6.97108000   15.35003000      0.480473    0.34982800    0.56046700
Se   12.92694000   11.81488000    5.42149000      0.046630   -0.56557700   -0.23030200
Se   14.76667000   14.31003000   13.59212000     -0.745498   -0.56351700   -1.89458300
Se   10.28012000   16.80147000    5.60936000      0.063054   -0.73712700    0.10040900
Se   13.80367000   19.79215000   17.22273000      0.270863    0.31990400    0.80312300
Se   20.18436000    1.22345000    5.02366000      1.271978   -0.18507900   -1.36600600
Se   18.65421000    0.47674000   17.72326000      0.350354    0.07164500   -0.90949100
Se   17.82365000    4.14156000    5.95483000     -1.596283    0.66524500   -0.41852300
Se   17.92850000    6.64757000   16.33962000      0.150447    0.63472400   -0.32206900
Se   20.00797000   10.69931000    5.05867000      1.127601   -0.83881100   -1.24772700
Se   17.17561000   13.41586000   13.03007000     -0.099200    0.78548600   -0.66814600
Se   17.00531000   18.71966000    6.03464000      0.016821   -0.06308600   -0.30152900
Se   17.45782000   22.50231000   13.97280000      0.267093    1.74307800    0.04775700
Se    3.60360000    7.10326000    7.10344000      0.240755    0.49224300   -0.36555100
Se    3.01168000    4.42178000   13.29867000      1.156319    1.31575400    0.29681300
Se    3.42409000    9.70758000    4.19654000      0.074581   -1.18147900   -0.02414800
Se    5.62824000   11.98576000   15.63803000     -0.567244    0.20312600   -1.06541400
Se    5.12730000   13.55252000    6.86843000      0.829359   -1.10783200    0.26627700
Se    4.02236000   17.92465000   17.96834000     -0.077333   -0.02038000    0.44579800
Se    1.82626000   21.84303000    5.97913000     -0.418788    0.18236500   -0.09130900
Se    5.14108000   22.48876000   13.89778000     -0.018488   -1.75336700   -0.17360300
Se   11.05365000    2.66786000    6.47526000     -0.499616   -0.69267100   -0.43576700
Se    9.58877000    3.65207000   16.05744000     -0.153168    0.15609900   -0.25383300
Se   11.05974000   10.46531000    6.27127000     -0.451320    0.14472200    0.53349000
Se   10.03564000   11.71003000   14.98056000     -0.099343    0.45261600   -0.04702800
Se    8.52981000   14.95093000    9.24993000      0.595058    0.41358700   -0.13030100
Se   12.29729000   18.26937000   16.35676000     -0.918974   -0.28510300   -0.99412000
Se   10.10078000   20.09863000    4.07733000      0.256762    0.28741300    0.54110200
Se    8.34681000   20.73104000   17.90002000     -0.932465   -0.65401100    0.27762600
Se   14.14164000    4.33796000    5.32341000     -0.399992   -0.39950900    0.22297100
Se   18.36591000    2.83794000   14.97532000     -0.197895    0.24829600   -0.50956400
Se   15.76402000    9.11256000    6.54380000      0.288302    1.51843100    0.43921800
Se   17.84193000    9.94277000   12.58574000     -0.217272   -0.39957600   -0.78631800
Se   17.89213000   12.22817000    5.75792000     -0.867399    0.62831000   -0.89375000
Se   16.72386000   18.20143000   15.96015000     -0.315654    1.10485200    1.50625500
Se   15.54376000    0.79569000    4.64498000      0.365080    1.06197800    0.60771300
Se   18.75073000    3.54110000   12.64846000      0.385614   -0.30528800    0.77659700
Se    0.07078000    3.82050000    7.63810000      0.830280   -0.17678000    0.11701100
Se   22.76768000    3.53576000   13.97058000     -0.842902    0.37936100    0.39654700
Se   19.45296000   12.90596000    8.41138000      1.596093   -0.22342500   -0.01521100
Se   22.54247000   11.57298000   15.95289000      0.970993    0.82465100   -1.31043900
Se   21.31108000   13.56486000    6.92432000      0.790999   -0.45822400    0.43061100
Se   20.74933000   18.10496000   14.33695000      0.051222    0.24631600   -0.19060800
Se   19.21389000   21.14474000    7.33714000     -0.391159   -0.25239900    0.58078000
Se   22.54905000   21.32421000   18.13056000     -1.462291   -0.72805700   -0.30224700
Se    3.47131000    2.83544000    5.83411000     -0.448005   -0.34664900    0.82500000
Se    6.29268000    0.93956000   16.98151000     -0.380203    0.81255100   -0.96126400
Se   22.72213000    4.14737000    0.36352000     -0.130266    0.01586500   -0.04212700
Se    4.80290000    9.54971000   11.30619000     -0.569240   -0.07672100    0.36399000
Se    1.43625000   12.10700000    2.94098000      0.003810    0.87684900   -0.36312100
Se    3.89212000   15.75462000   15.63947000      0.684274   -0.37994700   -0.62935600
Se    4.55726000   16.19012000    1.71859000      0.023004   -1.98070500   -1.13708400
Se    5.80988000   18.23115000   12.69550000     -0.280005    0.84648800    0.24622300
Se   10.87554000    1.01718000    2.50844000     -0.530135    0.11973400    0.80965200
Se   11.69390000    1.42441000   13.86462000      0.333614   -0.22959100    0.43478000
Se    9.91334000    8.99290000    2.83191000      0.092376   -0.38040600   -0.45406500
Se    7.91145000    8.83562000   16.28915000      0.240458    0.41046100    0.21981800
Se    9.24133000   12.39533000    3.99717000      0.414550   -0.03841800   -0.54025800
Se    9.75763000   12.33589000   11.66150000     -0.010857    0.00843100   -0.44362100
Se    8.75974000   20.79011000    2.35740000     -0.326384    0.78400300   -0.88090000
Se   11.40064000   19.12972000   13.92325000      0.095633   -0.72810900    0.74170800
Se   18.30751000    1.29839000    6.22040000     -1.424523   -0.55055500    0.80973900
Se   14.48489000    2.24746000   13.19504000      0.326093    0.31667400   -0.21836400
Se   15.84464000    6.94265000    3.78905000      0.779369   -0.19004700    0.45011400
Se   15.09460000    5.11055000   14.91280000      0.422950    0.63713200    0.31015500
Se   14.71421000   13.30640000    2.72821000     -0.534527   -1.41116600   -0.04260800
Se   17.48639000   16.65972000   14.48137000      0.575441   -0.30306000   -1.48699700
Se   15.56449000   15.84066000    4.47304000      0.339353   -0.17845800   -0.55327400
Se   16.66913000   20.39581000   14.38722000     -0.535552   -0.99701500    0.00937700
Se   22.68606000    0.38141000    5.70459000      0.531641   -0.71928600   -0.41916600
Se   20.80439000    0.01906000   12.30665000     -0.078739    0.62275000    0.04615500
Se   21.18756000    5.15035000    4.89138000     -0.444372    0.03842000   -0.90743300
Se   20.98168000    8.77663000   14.36506000      0.569840   -0.38194700   -0.88655000
Se    1.21071000   13.54867000    6.22534000     -0.582219   -0.06809800   -0.72562100
Se   21.62133000   14.27103000   16.26177000      0.768859    0.21006800   -0.33138400
Se   21.89805000   18.99506000    5.25325000      0.042664    0.37154700   -1.29334000
Se   21.47509000   19.31866000   10.21035000     -0.111982    0.23198700    0.05819100
Se    0.40902000    5.06380000    5.63800000      0.369240   -0.37249900   -0.19793300
Se   21.60413000    5.81106000   14.66972000      0.747970   -0.40507800   -1.40346400
Se   21.25412000    9.91089000    3.02713000      0.018179   -0.42098700    0.47502300
Se    0.81454000   11.54719000   12.50405000      0.534975   -0.26066600   -0.01442800
Se    1.17188000   14.23006000    1.11987000     -0.275624   -0.27181300    1.07788100
Se    0.86869000   21.04881000   12.53474000     -0.431180   -0.00395700    0.08098300
Se    3.80352000    0.38709000    3.99283000      0.498743   -0.37051300   -0.66670700
Se    3.47608000   18.93005000   14.00992000      1.035727   -0.02359900    0.36663500
Se    9.56918000    6.34884000    7.40557000      0.433522    1.01970700    0.09533800
Se    7.02631000    4.15634000   13.17991000     -0.129183    1.35823000   -0.92752400
Se    5.87727000    6.42776000    4.09674000     -0.047517    0.65669500   -0.60037300
Se    7.91914000   10.62745000   12.79852000      0.739814   -0.30645700    0.03847100
Se    8.11429000   17.47497000    3.38168000     -0.361090   -0.22465600   -0.19395100
Se   12.19229000   14.74869000   13.70851000     -0.418446   -0.03151500    0.69903200
Se    6.57736000   21.10353000    6.74281000      0.263039   -0.02788600   -0.60194900
Se    7.88688000   21.75766000   14.00262000      0.596072   -0.04030300    0.41029400
Se   12.76191000    2.16438000    3.51528000     -0.112502    0.07505000    0.06375700
Se   10.48011000    2.77972000   12.32877000     -0.465725    0.48150300   -0.72624100
Se   13.78769000   10.52293000    3.58955000      0.840138    0.07235800   -0.50186600
Se   12.07096000    9.12345000   12.93425000      0.128063    2.00636300    0.04312600
Se   12.19496000   15.22940000    3.03875000     -0.359624   -0.37019600   -0.01338300
Se   14.77053000   17.84811000   12.29092000     -0.516844    1.51562900    0.26524000
Se   13.55479000   18.92829000    1.58376000      0.254321    0.05878100    1.56226800
Se   13.55276000   22.53393000   15.38607000     -0.485952   -1.88093700   -1.13184800
Se   17.24024000    5.60471000    0.97196000     -0.265066   -0.15842800    0.40142100
Se   16.86360000    6.51556000   13.12300000     -1.402627   -0.30894400   -0.03663200
Se   17.76487000    8.53471000    3.96932000     -0.623396   -0.53076100   -0.88322900
Se   20.88486000   12.88241000   12.80788000     -0.746156    0.47434900   -0.32569500
Se   21.93667000   15.55447000    3.97777000      0.678567    0.12969000    0.25083700
Se   19.07072000   15.79064000   10.73511000      0.362511    0.38038100    1.29144500
Se   19.37439000   21.26924000    3.82650000     -0.316693    0.32722600    0.29061900
Se   16.38971000    0.68312000   11.27036000      0.297514   -0.32338000    0.28848400
