384
23.00800000 23.00800000 19.32000000
Ge    5.27245000    5.23761000   10.87632000      0.300025   -0.11405100   -0.46201300
Ge    4.77323000    5.84801000    1.53230000      1.270592    0.56294100   -0.06790800
Ge    1.49767000   11.84679000    8.18551000      0.085656    0.05411100   -0.43210200
Ge    6.17985000   11.35517000   17.90080000      0.495210   -0.86132500    0.56909100
Ge    4.29193000   14.99601000    9.82528000     -0.194177    0.06509300    0.32328000
Ge    8.54564000   18.53439000    1.10586000     -1.472431   -0.25822600    0.09580500
Ge    9.25745000   20.09814000    9.36843000     -0.165540    0.65944900    1.04678000
Ge    4.98370000    1.50429000    0.08179000     -1.477659    2.40549000   -0.54529500
Ge    8.51193000    5.10803000   11.13117000     -0.266850   -0.09336800    0.65097000
Ge   11.51165000    5.37136000    0.85143000      0.622045   -0.75387200    0.15462500
Ge   10.55089000   11.49675000    9.15274000      1.720779    1.89968800    0.71065100
Ge   10.48484000   11.89759000   17.47634000      1.469793    0.97227500   -0.82798300
Ge   10.08895000   17.04414000    7.99474000      0.295854   -1.58030600    0.02957200
Ge   11.92001000   14.60424000    0.40001000      0.080869    0.71875700   -0.33036300
Ge   10.23893000    1.93733000    9.49124000      0.477352   -0.33676000    0.36414400
Ge   15.43573000   21.43234000    0.28837000     -0.053016   -1.35610400    1.42148600
Ge   19.09605000    5.72052000   10.01833000      0.062521   -0.27381600   -0.33059500
Ge   19.29093000    9.17245000   15.95406000     -1.083650   -0.27072900    0.90289900
Ge   21.28559000   14.28932000   10.54073000     -0.037048   -0.11215400    0.78555000
Ge   16.60491000   11.32190000   18.42612000      0.510953   -0.54963500    0.62555600
Ge   13.91694000   16.34557000    8.33672000     -0.056157   -0.07236200    1.03650400
Ge   18.26463000   15.01752000    1.43836000     -1.209329    0.67058700   -0.40006100
Ge   18.20989000    0.72931000    9.42553000      1.119612    0.36301500    0.38194800
Ge   17.65553000    2.02390000    0.79177000      1.066493    2.46150500   -1.33469100
Ge   22.14314000    5.34558000   10.19172000      1.643753   -0.14351300   -1.46369000
Ge   20.10877000    3.74129000    0.78056000      0.213217    0.42187500   -0.60032700
Ge    0.63374000    9.73886000    9.58188000      0.072764    0.03052000    0.98500200
Ge    1.30515000   11.98485000   18.84901000     -1.557537   -0.32176300    0.12496900
Ge   21.82013000   15.68670000    8.13014000      1.028878   -0.24273200   -0.03964100
Ge    2.14196000   15.95289000   17.77100000      0.291041    0.40026100    0.10297200
Ge   20.06968000   21.60803000    9.79625000      0.425943   -0.14539400    0.58508800
Ge    1.59380000   22.07161000    0.05280000     -0.047829   -0.18719100    0.77406700
Ge    5.55525000    8.92102000    7.94676000     -0.093646    0.05647700    0.04541900
Ge    0.42889000    6.44044000   18.94952000     -0.299517   -0.64540700   -1.03127800
Ge    0.74828000    8.56296000    5.30430000      0.486184   -0.09347000   -1.33973000
Ge    4.31977000   13.62818000   16.85164000     -0.343141   -0.23553000   -0.03427700
Ge    4.48901000   18.34531000    2.48095000     -0.850056    0.52864500    2.58243100
Ge    2.25699000   19.64048000   18.18731000     -0.670781   -0.46296800    0.07091600
Ge    5.43428000   18.98429000    9.69810000      0.730700    0.29859500    2.42955500
Ge    3.46337000    0.06752000   17.45043000      0.585617   -0.36007800   -0.37964500
Ge    9.23857000    4.07893000    7.49564000     -0.607434   -0.56597600    0.05726200
Ge    8.20693000    5.34290000   17.63962000     -0.131485   -0.26526900   -0.48598600
Ge    6.77013000   12.78879000    4.20660000      0.409833    0.41043300    0.25094300
Ge    8.18197000    7.82445000    1.04525000      0.980614   -0.14617300    1.57073800
Ge    6.24624000   16.88514000    7.42532000      0.195739    0.11120300   -0.08411200
Ge    8.63842000   15.56040000   17.21967000      0.253078    0.83228800   -0.53881900
Ge   10.65939000   22.98079000    5.16236000     -0.192443   -0.08354400   -0.37160800
Ge   11.31253000   21.66172000   14.15212000     -0.546000    0.83104900   -0.29068100
Ge   13.36456000    6.17605000    8.36459000      0.163794    0.35670800    0.59451400
Ge   13.84640000    6.79917000   16.72541000     -0.266988   -2.00917600   -2.09970000
Ge   13.38375000    9.85589000    7.47434000      0.052052   -0.08008500    0.12602000
Ge   15.23734000   13.23307000   15.67043000     -0.036315   -0.36953900    1.71131500
Ge   13.59313000   16.88300000    5.38067000     -1.531128    0.66521900   -0.05296800
Ge   13.94550000   17.65265000   18.94007000      1.121196   -0.39238700   -0.74429800
Ge   13.94409000   22.21608000    8.39718000     -0.515220    0.17192700    0.42404000
Ge   16.14626000    1.59469000   15.02888000     -0.132513   -0.10527000   -0.89942700
Ge   20.02555000    3.54430000    6.45341000      0.819789    0.05914700    1.02851400
Ge   20.19598000    6.03789000   16.49288000      0.553170   -0.56908100    1.50342600
Ge   17.43405000   10.57727000    7.52925000     -0.270297   -0.09362500   -0.30133800
Ge   19.80109000   13.37451000   17.51069000     -0.168420   -0.60024200    0.77652600
Ge   17.86311000   16.44237000    5.45171000      0.681670    0.32025100   -0.26101900
Ge   18.47688000   20.75213000   17.51974000      0.358554   -0.65200700    0.61170100
Ge   21.77878000    1.58310000    7.66154000     -0.245272   -0.33188200   -0.73725600
Ge   19.10053000   22.13374000    0.49845000      1.106716   -0.26118400    0.14791400
Ge    5.17758000    2.83923000    7.50510000      0.357900    0.52826900    0.14534000
Ge    4.11091000    4.65083000   16.00545000      0.196725    0.38945100   -0.43558700
Ge    3.48119000    6.98409000    4.35229000     -0.767346    0.44943500    0.11156500
Ge    2.62154000    9.90664000   12.84439000      0.548600   -1.01779100    0.13750800
Ge    1.73355000   15.38085000    3.40290000     -0.504241   -0.10837700    0.08967000
Ge    0.76207000   18.90358000   14.83903000      0.081954    0.19915000    0.06239600
Ge    2.36994000    1.49561000    8.34861000      0.490053    0.09735600   -0.00551000
Ge    5.39550000   18.32021000   15.89949000     -0.201213    0.34620600   -0.70394000
Ge    9.17308000    3.12828000    2.82102000      0.332895   -0.21947100   -0.74444600
Ge    9.62840000    1.08037000   15.54305000     -0.553507    0.51275200   -0.82338800
Ge    8.50829000    9.49144000    5.30313000      0.735851    0.89166700   -0.39301000
Ge    9.78450000    9.20629000   14.24373000     -0.514779    0.51077600   -0.43830500
Ge   10.98103000   14.22682000    5.05336000     -0.516827    0.58751500   -0.42385900
Ge   12.06095000   11.94875000   13.48377000     -0.003940    0.15048600    0.49342800
Ge    5.73840000   21.58861000    2.79159000      0.145738   -0.55327900    0.46709600
Ge    9.41023000   18.90388000   15.91822000      0.254712    0.15978300    0.19268900
Ge   13.57350000    1.51270000    6.39158000      0.400716    0.37221600   -0.60495700
Ge   11.73641000    4.73337000   15.42944000     -0.377076   -1.24740700   -0.62765800
Ge   15.70569000    6.51212000    6.37610000     -0.368642   -0.43268900   -0.25361400
Ge   14.71694000    9.03056000   14.60585000     -0.260521    0.56511000    0.12975200
Ge   15.38192000   13.42102000    5.66357000     -0.319063   -0.21528100   -0.61019300
Ge   15.01406000   16.69805000   14.42626000     -0.645829    0.19179800    0.89734800
Ge   11.36438000   17.71348000    2.97637000      0.345147    0.08252600    0.08099700
Ge   10.31533000   21.46917000   16.85198000      0.305895    0.32742700    0.32523400
Ge   18.06097000    5.46835000    3.70512000     -0.468818   -0.19698100   -0.19851800
Ge   21.09704000    2.58460000   12.30890000     -0.431830   -0.58892500   -0.03631000
Ge   19.99325000    8.20893000    5.81413000     -0.209219    0.14847800    0.19944400
Ge   18.40778000   11.73095000   14.21823000      0.868174   -0.14743900   -0.16587700
Ge   21.51892000   15.70952000    1.60761000      0.088397   -0.13986600   -0.80162700
Ge   19.26983000   14.84686000   13.25053000      0.432952   -0.45426600   -0.53874500
Ge   19.34603000   19.54346000    5.48414000      0.157317   -0.04124600    0.27317500
Ge   22.31139000   21.43890000   15.48471000      0.490174   -1.83892700    0.55819000
Ge    5.69110000    2.40961000    3.63651000     -0.248875    0.40470100    1.27336500
Ge    5.38312000    1.72212000   14.37480000      0.009533    1.42479600    0.91728900
Ge    5.91179000    9.24528000    4.00896000     -1.210680   -0.93094700    1.52083000
Ge    6.55616000    8.60900000   13.02868000     -0.509606   -0.11898200   -1.25761600
Ge    6.61916000   15.40334000    3.07836000      0.488526    0.13387100   -0.02728900
Ge    3.74266000   13.91786000   13.54777000     -0.720272    0.47873400   -0.26210400
Ge    5.32865000    0.31331000    5.92096000      0.987590   -0.60213500    1.85988900
Ge    7.55220000   20.18073000   12.41479000     -1.091367   -0.19392900   -0.59374900
Ge   11.62960000    4.29811000    4.51330000      1.206902   -0.81175600    0.36741300
Ge    8.10672000    2.13757000   13.03723000     -0.610019   -1.06386000    0.05375000
Ge   11.37626000    9.16147000    0.58874000      0.696479   -0.42562400    0.78615900
Ge   11.95720000    6.82113000   12.99482000      1.034030   -1.76077200    0.55621800
Ge    9.56124000   13.11085000    1.40426000      0.773965    2.25520000    1.28378700
Ge    8.90886000   14.84146000   11.77890000     -0.296120   -0.08806600    0.25917600
Ge   12.26048000   20.44159000    0.26393000     -1.014348    0.00406000   -0.84216300
Ge   12.15182000   19.61444000   11.08765000      0.274123    0.55180000   -0.07271100
Ge   21.56352000    0.64788000   17.67489000      0.155564    0.25945600   -0.15159400
Ge   14.65561000    5.44327000   12.49779000      0.047395   -0.00612200    0.01632000
Ge   17.32739000    8.30211000    1.29214000      1.128185    0.27307700   -0.00048900
Ge   14.98835000    9.40385000   10.02731000     -0.442697    0.04303500   -0.13560400
Ge   16.74104000   11.84230000    3.07008000      0.666029   -0.57108200    0.14990900
Ge   17.97504000   14.68788000    8.74285000      0.451231    0.64546500    0.56198300
Ge   17.83485000   17.98951000    2.04515000     -0.296690    0.01669600    0.08068300
Ge   15.97318000   21.13377000   12.08873000     -0.578083   -0.40598900   -0.98856700
Ge    0.42116000    1.94342000    1.70058000     -0.297716   -0.25480000   -0.67051800
Ge    0.10999000    0.09499000   11.33235000      0.043317   -0.48295700   -0.40549200
Ge   21.89190000    7.10840000    3.16852000     -0.127449    1.04568700   -0.71580600
Ge   22.30483000    9.55744000   12.45196000      0.131079    0.45364500    0.67785100
Ge   22.22784000   12.98290000    4.34497000      0.438911   -0.02178200   -0.20430400
Ge    1.21547000   16.27604000   10.17504000     -0.282017    0.30109700    0.51396800
Ge    0.93442000   20.54999000    4.09149000     -0.525217    0.37898800    0.24630300
Ge   20.80636000   17.67952000   11.86079000      0.467211   -0.66841800    0.22577400
Se    0.93972000    1.27340000   18.27367000      0.377366    1.06342800    0.81215200
Se    1.40318000    3.71176000   11.88189000     -0.877840   -1.02234500   -1.64631500
Se    1.00036000    7.06794000    1.76036000      0.258547    0.99379100    1.67064700
Se    0.40840000    7.62997000   11.71875000      1.259104   -0.04231900   -0.01941800
Se    3.32649000   11.31239000    0.56022000      0.848208   -0.43946900    0.50079900
Se    1.92698000   13.96551000    9.42129000     -0.266087   -0.37472900    0.44874900
Se    1.83980000   18.68709000    3.05089000      0.679570   -1.13614500   -0.46775700
Se    1.41526000   18.81020000    9.80541000      0.079039   -0.13217000    0.10390100
Se    7.17806000    1.86476000    1.86168000      0.784868   -0.15239100   -0.33853300
Se    7.59521000    1.46506000   10.36024000      0.186033   -0.65678200    0.65198700
Se    7.28374000    5.49797000    0.78214000     -1.047736   -0.56642400    1.06359900
Se    9.87448000    6.93533000   11.91632000     -0.511716    0.74891600   -0.27473400
Se    8.38733000   11.26059000    0.83652000     -1.285528   -1.57599600   -0.82735400
Se    5.97490000   13.70490000   12.66445000      0.129749   -0.19889200   -0.80929100
Se    4.89490000   20.03664000    1.10351000     -0.003941    1.08250700   -1.81363500
Se    9.34061000   18.70565000   11.81726000      0.059922   -0.03401400   -0.61273500
Se   14.43407000    2.77112000    0.27758000     -1.153154   -1.31195600    0.14849500
Se   12.84232000    0.89486000   10.23546000     -0.199663   -0.07819700    0.08167500
Se   10.12065000    6.92176000   19.04567000      0.869763    1.48021800   -0.96683400
Se    9.36978000    9.51839000    8.64235000      3.824235   -4.34693800   -1.59547500
Se   11.80952000   12.18628000    0.60453000      0.405069   -0.68692100   -0.22161700
Se   13.03860000   11.23488000   10.44882000      0.665789    0.59013400   -0.31384500
Se   15.34928000   15.38193000    1.95772000      0.422559    0.63429800   -0.57541000
Se   11.72998000   17.20850000    9.76476000      0.215125    0.26900600   -0.51852700
Se   16.64348000    3.38766000    2.54650000      0.066875    0.79491900    0.66149500
Se   16.15919000    3.10404000   11.11750000     -0.564402    0.44398000   -0.03066400
Se   16.01443000    7.04441000   18.00779000      0.328786    0.29711000    0.23465100
Se   20.73090000    6.52967000   11.58522000     -1.458698    0.45617100    1.65518500
Se   18.77866000   10.15574000    0.23177000     -1.047434    0.07851300   -0.24939800
Se   16.35252000   15.29737000    7.09118000     -0.538595    0.56580900    0.57829200
Se   19.63876000   17.24645000    0.41969000      0.111368   -0.56859600    0.54952400
Se   17.87076000   19.77137000   11.15744000      0.755507   -0.13516800   -0.02298200
Se    4.11324000    3.73378000    2.21780000     -0.865195   -0.30692300    0.20841900
Se    3.83256000    6.61919000   12.21086000     -0.430868   -0.20094300    0.56736800
Se    6.47827000   10.02564000    1.97009000     -0.362168    0.75553700   -0.72965700
Se    4.92438000   12.67769000   10.54931000      0.477854    0.20360900    0.96812000
Se    4.44175000   15.58382000    4.37960000     -0.285120    0.62674600   -0.41862900
Se    3.11747000   16.33497000   11.80461000      0.788982   -0.75507300   -0.20393700
Se    2.89177000    1.11500000    1.77573000     -0.227494   -0.51380100   -0.51526100
Se    6.90528000   21.15868000   10.00062000      0.469191   -0.88669600    0.72311900
Se   11.07675000    6.27309000    3.03844000     -0.286395    0.54382000    0.51954700
Se    7.23228000    3.47529000    9.36923000     -0.086429    0.69344100   -0.22309300
Se   10.42710000    9.61384000   17.77598000     -0.401085   -0.53013200   -0.72122400
Se    7.68043000   10.56621000    9.14660000     -5.444810    2.95828100    1.31191300
Se   10.54904000   17.53201000    0.59781000      0.801151   -0.26231300   -0.55443500
Se   11.43942000   14.77973000   11.47278000      0.400682   -0.42563700   -0.79230900
Se   13.41124000   22.45445000    0.97546000     -0.269099    0.93112700    0.04747500
Se   11.22271000   21.99336000   11.36850000     -0.047668   -0.90296700    0.77747600
Se   13.87116000    4.66642000    1.37822000     -0.095491    1.34312500    0.63705100
Se   17.18037000    7.23723000   10.31406000     -0.180888    0.42895600    0.26774200
Se   15.19613000    9.28249000    1.37952000     -0.702350    0.94235100   -0.21462400
Se   15.45495000   10.24983000   12.47761000      0.451913    0.01438900    0.17751200
Se   18.91936000   13.91284000    3.48641000     -0.772835   -0.07228400    0.54925100
Se   14.71469000   13.09258000    9.79756000     -0.317581   -0.71501000   -0.04625300
Se   17.01398000   22.96511000    1.51870000     -0.636138   -1.76208300    1.75421400
Se   14.39726000   20.19294000    9.73599000      0.516742    0.12239900    0.87932400
Se   20.73524000    1.20736000    1.34444000     -0.083181   -0.64444900   -0.33528100
Se   21.90303000    2.76717000    9.87444000     -0.402078    0.24751600    1.87305500
Se   19.73837000    6.43449000    0.71261000      0.439031    0.25419400    0.51684200
Se   21.32599000   10.32314000   10.52304000     -0.873335    0.22878300   -1.24169800
Se   19.97569000   13.55446000    0.79162000      2.239159   -0.82127500   -0.92114600
Se   22.88654000   15.69505000   12.18359000     -1.174094    0.57722500   -0.49543400
Se   22.87598000   21.72480000    2.31955000      0.116061    0.48133600   -0.39151100
Se   20.09231000   20.30866000   15.56347000     -0.177779   -0.20517300   -0.43465200
Se    3.94198000    5.17183000    8.35270000      0.150244   -0.51193700    0.60198900
Se    1.26281000    6.51867000   16.50772000      0.078046   -0.67311900    0.08429300
Se    3.82702000   10.83591000    8.22771000     -0.268154    0.58091800    0.26610800
Se    3.68246000    9.70776000   18.08829000     -0.469336    0.17157100    0.18365900
Se    4.68598000   18.99962000    7.54889000     -0.134507   -0.30019100   -1.80989700
Se    0.38067000   17.39939000   16.81853000     -0.336592    0.49416400   -0.18707500
Se    2.94450000   21.80470000   11.73672000      0.064353    0.59169900    0.58174300
Se    5.52820000   20.85042000   17.30386000     -0.050153    0.68208600   -0.39700400
Se    7.20059000    3.58585000    6.06484000      0.169175    0.13730500   -0.54282400
Se    6.07437000    3.64069000   17.09508000      0.430785   -0.68846000    0.50100500
Se    6.27776000   10.74358000    6.06188000      0.530775   -0.47011800    0.15427700
Se    4.81230000    6.84745000   17.15861000     -0.070686   -0.25112700   -0.20691500
Se    6.53077000   16.59450000   10.06736000     -0.029580   -0.03971300   -0.65755700
Se    7.14993000   17.39488000   18.61833000      0.304457   -0.11228700   -0.03033400
Se    8.48643000   18.65745000    7.59169000     -0.771234    0.84860000   -0.53868700
Se    6.12051000   22.59897000    0.25766000      1.504414   -2.25030300    0.54088600
Se   13.89821000    2.90366000    9.53506000      0.256557    0.85402400   -0.18607100
Se   13.17109000    4.40859000   17.32497000     -0.154212    0.54570000    0.25754700
Se   13.01771000    7.80715000   10.14327000     -0.114815    0.55781500    0.11175000
Se   13.46634000   11.44724000   15.72451000      0.359029   -0.28954400   -0.33487100
Se   12.96135000   14.48500000    6.53692000      0.802866    0.91972100    0.77644700
Se   13.84000000   15.21624000   17.20153000     -0.292574   -1.02600300   -0.26462200
Se   13.12761000   21.47872000    5.82671000      0.470311    0.05214200   -0.91636300
Se   16.44301000   22.10198000   17.64981000     -0.042668    0.97302600   -2.27018900
Se   18.19175000    3.56617000    9.13741000     -0.187207   -0.44301100    0.41778900
Se   20.16037000    3.86579000   17.49277000      0.059460   -0.85501100    0.18215700
Se   19.12826000    9.03955000    8.08337000      0.179440   -0.13278800    0.31983500
Se   16.99589000   10.22730000   15.70889000     -0.575888    0.19036900    0.92515600
Se   15.22709000   16.34184000   10.67511000      0.315307   -0.72306700   -0.82885400
Se   18.08687000   15.03592000   16.27604000     -0.411932   -0.42277900    0.16395700
Se   17.95588000   19.28333000    8.86125000     -0.443108    0.51797500   -0.18994000
Se   19.77654000   19.56727000    2.25563000      0.235676   -0.81049300   -0.82618400
Se    4.43241000   22.78087000    8.34117000     -0.478828    1.37411100   -0.54237200
Se    1.68201000    4.08485000   16.38241000     -0.427734    0.57645100    0.58789400
Se    7.08668000    7.02211000   10.44942000     -0.557513    0.09555300    0.34720800
Se    3.17212000    6.05720000   18.96490000      0.553621    0.12984900    0.14589100
Se    4.01888000   15.63952000    6.85574000     -0.212645    0.00143800    0.76022100
Se    5.71267000   13.58477000   18.81677000     -0.745896    0.98160400    0.42101700
Se    3.32948000   20.43769000    9.88949000     -0.311008   -0.43352000   -0.73801400
Se    0.51615000   16.79844000    0.51049000     -0.301213   -0.16004600    0.35759900
Se   10.01549000   22.37674000    8.29754000      0.140704   -0.26089500   -0.69257400
Se    9.76020000    3.86057000    0.18116000     -0.045557   -1.40994300    0.79553100
Se   11.63580000    4.71204000    9.13279000     -0.402947   -0.32972100    0.17481100
Se    6.61851000    8.29158000   18.71712000     -1.001701    0.50388800   -1.45030300
Se   10.98447000   14.02245000    8.69896000     -0.605475   -0.31003400   -0.68098800
Se    8.49322000   13.11188000   17.84221000     -0.747682   -0.26243100    0.52123600
Se   11.92938000   20.72012000    7.95997000     -1.396694    0.22716800    0.20551500
Se   11.54710000   14.67850000   16.64677000      0.191266   -0.06567400    0.86277900
Se   16.13438000    0.47245000    8.36120000     -0.007266    0.17536600   -0.85032500
Se   16.14448000    3.02625000   18.11088000      1.008151    0.23237400    0.05754000
Se   15.68717000    5.63546000    9.37183000     -0.059897   -0.59202900   -0.41060900
Se   13.83172000    8.37168000   18.35825000     -0.231824    1.53052100    1.65941900
Se   17.10952000   12.24916000    9.45219000     -1.356267   -0.52292600    0.70025200
Se   16.80836000   13.90457000   19.04262000     -0.347877   -0.28084300   -0.08815800
Se   14.45602000   18.50554000    7.34198000     -0.085994   -0.23113800   -0.60673700
Se   16.68400000   18.61720000   19.20059000     -0.220662    0.02737800   -0.00265600
Se   22.53633000   21.56366000    9.20731000      0.143721    1.22029300   -0.06487500
Se   22.95505000    0.58247000   15.15551000     -0.322915    1.21984400    0.09640100
Se   20.70808000    6.13917000    8.26651000     -0.429795   -0.23553200   -0.42886100
Se   21.26404000    7.48758000   18.43777000     -0.199812    0.25834400   -0.40992300
Se   22.07518000    9.63734000    6.65821000     -0.361971    0.66727500    0.39359100
Se   20.91191000   10.75625000   17.17634000     -1.255789    0.37116300    1.62545800
Se   19.77157000   16.65286000    7.58537000     -1.052697    0.62983100   -0.18864300
Se   19.97279000   16.20681000   16.93975000      0.574412   -0.50194400   -0.20305900
Se    3.30797000    2.83983000   10.48574000     -0.148249   -0.42559200   -0.87777900
Se    3.00662000    0.35904000   14.90724000      0.313838    1.17255200   -0.18531400
Se    0.85090000    8.07587000    7.67753000      0.046989   -0.70258700    0.38353800
Se    1.36302000    9.75798000   17.12675000      0.607622    0.06316000    0.17779700
Se    0.81728000   16.51047000    6.70390000     -0.528931    0.23353200    0.41674000
Se    1.60511000   13.55050000   16.92428000      0.992650   -0.29187700   -0.51434500
Se    0.29996000   18.92018000    7.09635000      0.137314   -0.73134600    0.29960500
Se    2.35724000   20.71673000   15.98612000      0.127427   -0.72852800   -0.01925600
Se    7.97359000    0.06344000    6.06823000     -0.761272   -0.20488900    0.17081400
Se   10.51357000    0.82084000   17.66842000      0.773505   -0.74315900    0.95800800
Se    7.75686000    7.34497000    6.04848000     -0.338469   -1.05729200    0.69011300
Se    6.81468000    7.04915000   15.34326000     -0.183771   -0.61889000   -0.74366200
Se    7.51162000   14.13309000    6.31609000     -0.954169   -0.22369200   -0.51524400
Se    9.05904000   17.10155000   14.07038000     -0.017815   -0.51009700    0.21225100
Se    5.48193000   19.36482000    4.48169000     -0.174440    0.01741600   -0.08252800
Se    7.72407000   15.21055000   14.76411000      0.044001    0.22669500    0.80232500
Se   14.94577000   21.79661000    3.79463000     -0.408867    0.12456900    0.64291300
Se   14.13658000    1.35850000   16.59881000      0.461084    0.55195900    0.46717200
Se   13.10107000    7.55615000    6.41764000     -0.072823   -0.56568500   -0.64972900
Se   10.93136000    6.96554000   15.39647000      0.421278    0.49520800    0.32588100
Se   12.94500000   11.83916000    5.33342000     -0.406476   -0.61665200    0.31337300
Se   14.76018000   14.31568000   13.58905000     -0.575352   -0.36147200   -1.88169800
Se   10.26644000   16.73794000    5.59999000      0.012524   -0.56315900    0.20297700
Se   13.83717000   19.75947000   17.24232000      0.301232    0.55075300    0.96545800
Se   20.27313000    1.20617000    5.08172000      0.059420    0.04188600   -0.86334300
Se   18.62907000    0.48866000   17.75195000      0.356905    0.21501400   -1.04465000
Se   17.77472000    4.18151000    5.95913000     -0.882362    0.54488000   -0.41900200
Se   17.93548000    6.63308000   16.36640000     -0.117090    0.83478800   -0.51178300
Se   20.01748000   10.73148000    5.02267000      0.928279   -0.90019400   -1.07877800
Se   17.11616000   13.40175000   13.00808000      0.240106    0.35454500   -0.48150300
Se   16.98171000   18.74667000    5.99740000      0.304180   -0.11980600   -0.26369600
Se   17.47723000   22.50776000   13.92980000      0.080965    1.17030000    0.15719900
Se    3.52421000    7.09084000    7.08084000      0.552388    0.46421400   -0.08453900
Se    2.94470000    4.38762000   13.31524000      2.056314    1.73204100    0.88952300
Se    3.39397000    9.65952000    4.17721000      0.111365   -1.07372200    0.04576400
Se    5.61915000   11.95823000   15.64076000     -0.689612    0.48925800   -1.07914700
Se    5.14034000   13.53495000    6.82918000      0.748304   -0.46958200    0.31687700
Se    4.01154000   17.95192000   17.93539000      0.005586   -0.17457100    0.70536700
Se    1.79270000   21.81003000    5.94709000     -0.331586    0.22185000   -0.10316500
Se    5.12186000   22.51959000   13.94278000      0.167734   -2.07147200   -0.31940400
Se   11.01627000    2.60443000    6.48766000     -0.346747   -0.62832700   -0.39415400
Se    9.59763000    3.56976000   16.01322000     -0.330069    0.64628800   -0.17707800
Se   11.00357000   10.43060000    6.30214000     -0.055225    0.32266500    0.27775600
Se    9.93756000   11.65849000   14.93808000      0.201843    0.41535600    0.43514800
Se    8.50106000   14.96331000    9.26880000      0.717444    0.39985600   -0.26214500
Se   12.32567000   18.27807000   16.34879000     -1.018803   -0.41637600   -1.05038300
Se   10.10929000   20.12425000    4.09323000     -0.041934    0.47248300   -0.02575600
Se    8.36135000   20.74376000   18.01177000     -0.299786   -0.29456100   -0.16606000
Se   14.11713000    4.37592000    5.30785000     -0.381880   -0.45752800    0.24374300
Se   18.41425000    2.86307000   14.98680000     -0.100168    0.24491600   -0.46092400
Se   15.78212000    9.14583000    6.52840000     -0.235618    1.06817800    0.29326500
Se   17.86478000    9.93157000   12.58959000     -0.190728   -0.26996800   -0.59948300
Se   17.93370000   12.19892000    5.76371000     -0.987947    0.33221500   -0.55352000
Se   16.74617000   18.21636000   15.95897000     -0.285715    0.88382100    1.32392700
Se   15.61047000    0.80420000    4.67097000     -0.015275    0.14876400    0.25856200
Se   18.77854000    3.52547000   12.64654000      0.224865   -0.21029100    0.75503600
Se    0.03278000    3.80661000    7.64109000      1.038924    0.05259500    0.07155800
Se   22.79799000    3.52916000   14.01799000     -1.125463    0.41538400    0.49145900
Se   19.41985000   12.86051000    8.40088000      1.923631   -0.23918000   -0.05048300
Se   22.57879000   11.58378000   15.96632000      0.771668    0.74373400   -1.26267500
Se   21.33115000   13.58924000    6.94158000      0.723330   -0.81040600    0.29645100
Se   20.72246000   18.05811000   14.28084000      0.072282    0.18816000   -0.15892200
Se   19.24455000   21.10975000    7.34024000     -0.416506    0.01474700    0.84139600
Se   22.53824000   21.33307000   18.13923000     -1.335228   -0.88495600   -0.29578800
Se    3.50674000    2.81561000    5.76182000     -0.580434   -0.24383000    0.67290100
Se    6.28680000    0.94877000   16.96264000     -0.415498    0.73114700   -0.92611200
Se   22.74719000    4.20031000    0.34997000     -0.268024   -0.45903800   -0.02566300
Se    4.78932000    9.54517000   11.29547000     -0.679905   -0.10928600    0.48612000
Se    1.35378000   12.18412000    2.89222000      0.119811    0.72571500   -0.31150400
Se    3.87498000   15.72061000   15.69794000      0.677624   -0.13685300   -1.05881700
Se    4.52240000   16.16706000    1.73782000      0.025417   -1.16557000   -0.72114300
Se    5.80061000   18.32547000   12.68328000     -0.255662    0.61555700    0.14916900
Se   10.89840000    1.01729000    2.51162000     -0.852414   -0.03326000    0.63196000
Se   11.66031000    1.42788000   13.88102000      0.470734   -0.35832000    0.52707400
Se    9.87060000    8.96531000    2.83503000      0.107941   -0.19442800   -0.28660200
Se    7.90200000    8.85922000   16.26373000      0.207810    0.43614200    0.18177900
Se    9.26252000   12.38967000    4.05313000      0.362521    0.03615900   -0.70775800
Se    9.74726000   12.32657000   11.63605000     -0.141418   -0.03692700   -0.15509800
Se    8.74826000   20.78712000    2.30505000      0.011397    0.34877000   -0.42785400
Se   11.41242000   19.15087000   13.96607000      0.165946   -0.80657800    0.58367300
Se   18.27695000    1.35168000    6.30177000     -0.448474   -0.50676100    0.25810700
Se   14.45801000    2.21686000   13.21362000      0.610932    0.22505500   -0.06719000
Se   15.85483000    6.99662000    3.81645000      0.645965   -0.40014800    0.42827400
Se   15.09191000    5.11185000   14.97659000      0.371454    0.64768800   -0.37212800
Se   14.73990000   13.24014000    2.71363000     -0.710984   -1.16704900   -0.10193200
Se   17.53276000   16.70759000   14.41419000      0.265748   -0.15831600   -1.09205400
Se   15.52654000   15.82356000    4.43869000      0.955925   -0.31868300   -0.41056600
Se   16.59018000   20.37632000   14.35385000     -0.211002   -0.50835200    0.35815400
Se   22.66929000    0.34262000    5.70584000      0.586463   -0.79142400   -0.30090200
Se   20.79317000    0.06499000   12.27970000     -0.235985    0.35492800    0.12793100
Se   21.18217000    5.12158000    4.85217000     -0.473622   -0.07246900   -0.77031000
Se   20.92422000    8.78225000   14.32451000      0.568148   -0.40781800   -0.89690100
Se    1.15517000   13.48887000    6.22028000     -0.420304    0.06858200   -0.76416500
Se   21.60621000   14.24421000   16.23083000      0.692795    0.31892400   -0.23376100
Se   21.90766000   19.00426000    5.21870000      0.124986    0.27616700   -1.10625700
Se   21.52096000   19.30778000   10.20276000     -0.219304    0.22179600    0.05796700
Se    0.39012000    5.07079000    5.65293000      0.374235   -0.25945600   -0.38653900
Se   21.62388000    5.76254000   14.64911000      0.612128   -0.29859700   -1.12833700
Se   21.28975000    9.89872000    3.03730000      0.118555   -0.48686000    0.35873000
Se    0.83734000   11.49115000   12.50433000      0.375614    0.35559200   -0.02544300
Se    1.17749000   14.22227000    1.14955000     -0.367962   -0.45783500    0.92898800
Se    0.92342000   21.02835000   12.59698000     -0.307927    0.00865600   -0.04386200
Se    3.88817000    0.37015000    3.96698000      0.074395   -0.55144600   -1.02849400
Se    3.47189000   18.96854000   13.98794000      0.975042   -0.00310200    0.52221300
Se    9.57731000    6.41423000    7.46064000      0.287575    0.35716400    0.08536200
Se    6.97127000    4.22446000   13.19516000      0.077522    0.93743700   -1.06256800
Se    5.88160000    6.45436000    4.08870000     -0.018734    0.65267500   -0.63280700
Se    7.84998000   10.67568000   12.76930000      0.724627   -0.53482000    0.17989500
Se    8.06898000   17.47773000    3.38321000     -0.290866   -0.34619600   -0.31759100
Se   12.17592000   14.70884000   13.69317000     -0.397038    0.04927700    1.14840100
Se    6.60934000   21.08649000    6.79805000      0.392412    0.42577400   -0.90543000
Se    7.88532000   21.81964000   14.02126000      0.527340   -0.23379900    0.14015900
Se   12.74760000    2.15149000    3.49053000      0.095540    0.35512600    0.37660000
Se   10.38238000    2.72549000   12.37179000      0.253141    0.86549500   -1.05773100
Se   13.78757000   10.51395000    3.58910000      0.814547   -0.08800800   -0.64548800
Se   12.11279000    9.16043000   12.94160000      0.118638    1.70408600    0.08755100
Se   12.21345000   15.22119000    3.05010000     -0.362639   -0.28413900   -0.04266800
Se   14.77094000   17.89908000   12.29395000     -0.450816    0.99062000   -0.22892500
Se   13.56641000   18.88400000    1.61132000      0.238810    0.32653400    1.97071100
Se   13.56513000   22.52222000   15.39112000     -0.334999   -1.21367200   -0.82981500
Se   17.23811000    5.59960000    0.94973000     -0.216752   -0.19065400    0.50279200
Se   16.84941000    6.47355000   13.19741000     -1.465594   -0.37406500   -0.01615700
Se   17.75478000    8.55842000    3.99983000     -0.500812   -0.32165400   -0.86431900
Se   20.82430000   12.88298000   12.83213000     -0.558157    0.42029100   -0.40247600
Se   21.94014000   15.56539000    4.01583000      0.643358    0.03727600   -0.23461700
Se   19.08232000   15.79335000   10.74243000      0.391898    0.28774200    1.21994800
Se   19.41407000   21.23355000    3.78435000     -0.405291    1.41114100    0.74232900
Se   16.31814000    0.68923000   11.24962000      0.341670   -0.55755800    0.05568700
