384
23.00800000 23.00800000 19.32000000
Ge    5.31162000    5.15794000   10.65123000      0.317752    0.88030400    0.92015600
Ge    4.99306000    6.03019000    1.44655000     -0.941016   -0.21057000    0.06032300
Ge    1.50076000   11.95819000    8.15100000      0.436695   -1.05563100   -0.12018800
Ge    6.07341000   11.40277000   17.92022000      0.449921   -0.26868500    0.21304900
Ge    4.25912000   15.09677000    9.76081000      0.146591   -1.12302500   -0.67568800
Ge    8.30078000   18.27779000    1.03381000      1.479849    0.50490000    1.10955900
Ge    9.47293000   20.00882000    9.53451000     -0.456596    0.36064200   -0.38394300
Ge    5.01682000    1.81261000    0.05441000     -0.431219    0.03518000   -0.04552500
Ge    8.46342000    5.01547000   11.36016000      0.341587    0.77379500    0.00128700
Ge   11.33848000    5.24331000    0.99352000      0.039399   -0.05832200   -0.33203900
Ge   10.56056000   11.65925000    9.31911000      0.437125    0.26609800   -0.32768700
Ge   10.69666000   11.95156000   17.52982000      0.367652    0.31346000   -0.38655800
Ge    9.87622000   16.86859000    7.97542000     -0.207961   -0.36041100    0.32721300
Ge   11.81153000   14.71515000    0.41769000      0.186342    0.60304800   -0.11355100
Ge   10.26316000    1.99234000    9.23658000      0.700371   -0.80732800    0.48504700
Ge   15.50200000   21.26051000    0.34460000      0.564441   -0.38163200    0.47137800
Ge   18.99368000    5.70924000    9.98946000      1.101924   -0.23954800   -0.54194800
Ge   19.26287000    9.36301000   16.10086000      0.478885   -0.72702500    0.34848000
Ge   21.47227000   14.48907000   10.50376000     -1.210981   -1.08805200    0.20030700
Ge   16.71408000   11.40504000   18.43577000     -0.036052   -1.25766700    0.44458500
Ge   13.89462000   16.28729000    8.43979000      0.063695    0.59492200    0.65031800
Ge   18.16774000   14.80713000    1.39760000      0.105705    0.24568400    0.38896000
Ge   18.54078000    0.58949000    9.43770000      0.165742    1.06724100   -0.04932600
Ge   17.80141000    2.19049000    0.81861000     -0.345215    0.05085700   -0.13451700
Ge   22.26397000    5.49032000    9.97237000      0.097255    0.23556400    0.14626400
Ge   20.22983000    3.70145000    0.74399000      0.178817    1.02988400   -1.03987100
Ge    0.73448000    9.87539000    9.62781000      0.030628   -0.00465500    0.77702300
Ge    1.09216000   12.07890000   18.93873000      0.009865   -1.10682900   -0.32776200
Ge   22.05145000   15.55508000    8.11029000     -0.543946    1.30124700    0.47515600
Ge    2.06416000   15.98603000   17.74119000      0.247230   -0.07157900   -0.07811700
Ge   19.90653000   21.59892000   10.18100000      1.418547   -0.41686900    0.26313200
Ge    1.71704000   22.02078000    0.08604000     -0.489438   -0.37766600    0.50544900
Ge    5.78621000    8.95218000    7.81741000      0.048828   -0.23761900    0.86907900
Ge    0.49546000    6.44783000   18.91282000     -0.124622    0.50164700    0.05536900
Ge    0.73609000    8.41701000    5.23859000     -0.158544   -0.01117300   -0.70720500
Ge    4.22703000   13.61062000   16.95908000      0.072411   -1.18110900   -0.78762400
Ge    4.47375000   18.51112000    2.68232000     -1.637500   -1.11707600   -1.81543300
Ge    2.22658000   19.46945000   18.21201000     -1.640980    0.67718700   -0.41842500
Ge    5.35907000   19.23703000    9.89677000     -0.393469   -1.01324800    0.03492500
Ge    3.34307000    0.00652000   17.52352000      0.563877    0.01241700   -0.33254000
Ge    9.26972000    4.06424000    7.60916000      0.094323    0.47004000   -1.29831400
Ge    8.25645000    5.20644000   17.71307000     -0.030093   -0.04770000   -0.40193800
Ge    6.77460000   12.66957000    4.18883000      0.150784   -0.04834100   -0.52829100
Ge    8.23658000    7.87264000    1.18667000     -0.867721   -0.98535300   -0.34395000
Ge    6.20104000   16.86135000    7.49391000      1.065416   -0.23138400   -1.44172300
Ge    8.54983000   15.47839000   17.31812000      0.536309    0.70216600   -0.51421900
Ge   10.59856000    0.00224000    5.06819000     -0.342959   -0.71642400   -0.08545000
Ge   11.28954000   21.80613000   14.17424000      0.082375    0.74843700   -0.61694000
Ge   13.42446000    6.09168000    8.51733000      0.595228    0.71211900   -0.58561100
Ge   13.97272000    6.78668000   16.57258000     -0.349738    0.60501900   -0.06241900
Ge   13.26303000    9.68075000    7.54539000      0.234769    0.32584100   -0.23756200
Ge   15.14148000   13.32054000   15.85845000      0.463456   -0.79182200   -0.82069000
Ge   13.49577000   16.95746000    5.31346000     -0.284175    0.69591700   -0.81935000
Ge   14.30499000   17.80671000   19.04010000     -0.226045   -0.98850900    0.19905500
Ge   13.99827000   22.08354000    8.36013000     -0.865906    0.64371100    0.11227200
Ge   16.41021000    1.54613000   15.04181000     -0.872947   -0.21014200   -0.70625900
Ge   20.07913000    3.55401000    6.71852000     -0.885996    1.27284200   -0.15593900
Ge   20.29205000    6.16794000   16.66345000      0.218463   -1.48207500   -0.74535200
Ge   17.21601000   10.49900000    7.81142000      1.024852    0.84312800   -0.05073900
Ge   19.69624000   13.26808000   17.49499000      0.915378   -0.13309100    0.24660900
Ge   18.04710000   16.59383000    5.50405000     -0.317025   -0.23612800   -0.41547400
Ge   18.54308000   20.59801000   17.33753000     -0.136813   -0.32210900    0.66463400
Ge   21.76461000    1.66085000    7.54388000      0.063767   -1.58454300    0.06621200
Ge   19.44882000   22.18508000    0.45551000     -0.837722   -0.70221900    0.17013200
Ge    4.93958000    2.96070000    7.44207000      0.905055    0.33463000    0.01831200
Ge    4.02639000    4.85291000   16.05462000     -0.424826   -0.75681300   -0.15752000
Ge    3.43294000    7.12687000    4.63476000     -0.511293   -2.19251800   -1.04575400
Ge    2.51637000    9.57942000   12.92011000      0.861600   -1.12947700    0.20749200
Ge    1.70664000   15.36076000    3.40029000      0.027292    0.72166100    0.83128200
Ge    0.62574000   18.74136000   14.72267000     -0.060536    0.21141100    0.37523000
Ge    2.38805000    1.59911000    8.50859000     -0.828584   -0.99005200   -1.63556400
Ge    5.23839000   18.01078000   15.80300000      0.039176    0.26034300   -0.72652100
Ge    9.19321000    2.96575000    2.74496000      0.439597    0.35550600   -0.29110400
Ge    9.52585000    1.03570000   15.62206000     -0.343726   -0.58376800   -0.50416200
Ge    8.66846000    9.38292000    5.18936000     -0.113210    0.41161800   -0.03674500
Ge    9.69766000    8.85011000   14.23212000      0.227817    0.21450000   -0.58071400
Ge   11.05406000   14.40165000    5.13630000      0.085390   -1.81436800   -0.73054800
Ge   11.91241000   11.90885000   13.66547000     -0.517419   -0.05938100    0.15853900
Ge    5.62100000   21.40089000    2.97268000      0.921326   -0.30650400   -1.18509300
Ge    9.71962000   19.03991000   16.05032000     -0.451185   -0.50407400    0.25177900
Ge   13.71133000    1.65525000    6.21389000      0.096821    0.32942300   -0.67096300
Ge   11.64299000    4.58767000   15.34858000      0.069907   -0.30209500   -1.29852600
Ge   15.72508000    6.33690000    6.42523000     -0.046956   -0.08017300   -0.00587200
Ge   14.69714000    9.27745000   14.66712000     -0.413104    0.09977200   -0.40808900
Ge   15.36229000   13.28667000    5.61921000     -0.036361    0.17175100   -0.51559600
Ge   15.02927000   16.87576000   14.48205000      0.220181   -0.31960500   -0.19572100
Ge   11.39105000   17.71574000    2.68195000      0.050745   -0.29658500    0.40417900
Ge   10.50765000   21.50752000   16.73422000     -0.075286    0.48713900    1.11591500
Ge   18.05198000    5.57360000    3.58710000      0.046437   -0.08501100    0.80256900
Ge   21.13190000    2.57687000   12.24715000      0.112334    0.18206500    0.82430800
Ge   19.92501000    8.31240000    5.82541000     -0.139917    0.24978900    0.73699800
Ge   18.53089000   11.69776000   14.34244000     -0.181062   -0.13236500   -0.94390200
Ge   21.74299000   15.67148000    1.47125000     -2.958929   -1.06262900    1.57773800
Ge   18.98583000   14.60626000   13.38217000     -0.242272    0.85508200   -0.56353300
Ge   19.48124000   19.71543000    5.47270000     -0.294982   -0.68314800   -0.15940600
Ge   22.23053000   21.33874000   15.58525000      1.821517   -0.06367800   -0.05654400
Ge    5.63907000    2.45968000    3.58958000      0.234123    0.36943900    1.12933600
Ge    5.40986000    1.92085000   14.62455000     -0.210298   -0.20442100   -0.51046600
Ge    5.74486000    9.06536000    4.17408000     -0.164090    0.61230700    0.28168000
Ge    6.39935000    8.54129000   12.98689000     -0.110636   -0.09494700   -1.23981800
Ge    6.77780000   15.28269000    2.89552000     -0.746470    0.12805900   -0.04763400
Ge    3.44984000   14.00680000   13.16352000      0.871566    0.52088900   -0.21841800
Ge    5.35427000    0.06025000    6.02986000      0.629497   -0.18466900    0.12040500
Ge    7.46631000   20.31241000   12.38525000      0.714717    0.63759600    0.05702500
Ge   11.60460000    4.38102000    4.46717000      0.357963   -0.60973300    0.41525600
Ge    7.98427000    2.26872000   13.03416000     -2.004679   -0.72715600    0.38278300
Ge   11.45740000    9.25250000    0.55397000      0.899075    0.04473200    0.07958700
Ge   12.20899000    6.76773000   13.06553000     -0.779417    0.55859700    0.27028100
Ge    9.49746000   13.22155000    1.51962000      0.082756   -0.10166100    0.63816600
Ge    8.89221000   14.96006000   11.85043000      0.464326   -0.25917300    0.01251500
Ge   12.17905000   20.52208000    0.56808000      0.041943   -0.47756700   -0.36729900
Ge   12.15797000   19.48827000   11.33121000      0.458324    0.44810000   -0.54931200
Ge   21.53870000    0.47967000   17.51059000      0.647195    1.13385500   -0.17618500
Ge   14.62576000    5.61355000   12.39075000     -0.321354   -0.69879000   -0.11713900
Ge   17.47683000    8.34516000    1.33713000      0.311106   -0.17806000   -0.18902000
Ge   14.99248000    9.39223000    9.89792000      0.549804   -0.37242900    0.23569800
Ge   16.93986000   11.71859000    3.04758000      0.755845   -0.06798900    0.47338400
Ge   18.17275000   14.69791000    8.68679000      0.480778    0.36307700    0.08514000
Ge   17.74907000   17.84867000    2.06598000     -0.316577    0.27253900    2.65138500
Ge   15.91169000   20.99237000   12.00636000     -1.078092    0.24850000   -1.05301900
Ge    0.34647000    1.76759000    1.69734000      0.129253   -0.53829400   -0.34583200
Ge    0.21623000   22.75009000   11.42612000     -0.391489    0.90114300   -0.36306800
Ge   21.82139000    7.32739000    3.27217000      0.058484   -0.14301300   -0.09455200
Ge   22.45510000    9.57055000   12.59606000     -0.713443   -0.50276400   -0.84417500
Ge   22.11254000   13.00877000    4.37648000     -0.631998    0.32754900   -0.64133500
Ge    1.13202000   16.14655000   10.27369000      0.713314    1.91642300   -0.30010400
Ge    0.97006000   20.39212000    4.03598000     -0.822787    0.43447800   -0.47743500
Ge   20.86256000   17.69204000   11.84098000      0.320441   -0.50361900   -1.26565900
Se    0.96152000    1.34919000   18.43786000     -0.341447    0.26433500    0.26470400
Se    1.45039000    3.48933000   11.79818000     -0.775693    0.31238700    0.43714500
Se    0.88912000    6.98233000    1.93221000      0.110977    0.73711700    0.45240900
Se    0.66539000    7.53916000   12.03337000      0.499587    0.98804700    0.17691100
Se    3.43898000   11.13103000    0.46020000     -0.374451    0.67939600    0.64223600
Se    1.70669000   13.99628000    9.36397000      0.274060   -0.76600000    0.32390500
Se    1.62107000   18.58135000    2.78341000      1.256518   -1.02865400   -0.17542700
Se    1.21995000   19.08395000    9.86516000      0.034444   -0.82769800    0.29668100
Se    7.26350000    1.83159000    1.72313000     -0.192021   -0.61342300   -0.30946200
Se    7.52901000    1.37223000   10.31518000      0.058695    0.87663500    0.05337900
Se    7.13410000    5.26868000    0.75230000      0.836815    0.17479500    0.69435500
Se   10.02236000    7.03740000   11.77117000      0.381501   -0.25343000    0.82307200
Se    8.29631000   11.15245000    0.78212000     -0.391984    0.21215300   -0.08990200
Se    5.99180000   13.74720000   12.67610000     -0.733789   -0.10146000   -0.26308100
Se    4.79613000   20.22141000    0.92596000     -0.228788   -0.65298200    0.74653900
Se    9.32922000   18.61204000   11.80725000     -0.523029    0.37312100    0.15760700
Se   14.46179000    2.91197000    0.34491000     -0.261591   -0.54075300   -0.00120500
Se   12.72823000    0.96678000   10.31168000      0.293939    0.01316700   -0.42680200
Se   10.31068000    7.06745000   19.20623000     -0.249215    0.47882100   -1.51900500
Se    9.56253000    9.27210000    8.44472000     -0.581956    0.55357000    0.47512700
Se   11.89530000   12.24847000    0.62732000     -0.349986   -0.43651400   -0.11158800
Se   13.29328000   11.11480000   10.38882000     -0.419627    1.52067100    0.09643800
Se   15.29813000   15.28402000    1.88462000      0.246916    0.18499000    0.06605100
Se   11.64422000   17.34906000    9.65246000      0.329662   -0.19166800   -0.46158600
Se   16.65364000    3.71606000    2.81182000     -0.003740   -0.34920800   -0.87785300
Se   16.19046000    2.98744000   10.98018000     -0.721495    0.68884500   -0.10101000
Se   16.12614000    7.19061000   17.88987000      0.220797    0.30011200    0.68296200
Se   20.50953000    6.79995000   11.53869000      0.266541   -0.85015200   -0.00084600
Se   18.75492000   10.20135000    0.28623000     -0.187849    0.61636400   -0.36562800
Se   16.39182000   15.26611000    7.03157000     -0.021385    0.28466700    0.40222300
Se   19.37928000   17.40093000    0.48868000      2.277133   -1.51894200   -0.89562100
Se   17.69841000   19.63837000   11.15046000      1.724157   -0.42066100    0.04834000
Se    4.12985000    3.72107000    2.10906000     -0.311843    0.58726500   -0.41148100
Se    3.80854000    6.58220000   12.31042000      0.084684   -0.89360700   -0.03017600
Se    6.33367000   10.18303000    2.19681000      0.094389    0.33611500   -0.44970600
Se    5.06528000   12.73374000   10.61935000     -0.039091    0.49197600    0.46522500
Se    4.26952000   15.64054000    4.46433000      0.548403    0.18453900   -1.26096500
Se    3.39021000   16.26804000   11.67966000     -0.601736   -0.04210100    0.77349700
Se    2.96682000    0.87743000    1.55687000      0.025269   -0.22287400   -0.36156500
Se    6.91917000   21.08020000   10.03425000      0.985696    0.58328100    0.46405700
Se   10.92352000    6.44912000    2.93780000      0.192153   -0.27541100    1.68538900
Se    7.35182000    3.49757000    9.03621000     -0.659943   -0.74071400    1.10462800
Se   10.53261000    9.47760000   17.63311000      0.085537    0.85530300   -0.26027900
Se    7.47911000   10.73217000    9.17854000      0.615707   -0.58630800   -0.29139000
Se   10.62459000   17.36997000    0.32693000     -0.697423    0.28666400    0.03270300
Se   11.52287000   14.58261000   11.51440000     -0.463324    0.07958200   -0.85445100
Se   13.55144000   22.47432000    0.98050000     -0.736788    0.65749500    0.07428900
Se   11.32056000   21.94883000   11.40280000     -0.116351   -1.00127300    0.63052300
Se   13.55969000    4.77689000    1.50029000      1.101765    0.41989900    0.10789100
Se   17.39653000    7.22906000   10.74631000     -0.727286    0.23260300   -0.05340500
Se   15.23434000    9.39761000    1.26247000     -0.280638    0.43095300   -0.20809300
Se   15.60077000   10.32904000   12.41374000      0.218078   -0.44243400    0.12548300
Se   18.79508000   13.92604000    3.73603000     -0.781355   -0.07678000   -0.43406300
Se   14.56358000   13.34757000   10.01259000     -0.091126   -0.99937100   -0.10648700
Se   16.89034000   22.91966000    1.69123000      1.283087   -0.18577100   -0.00605300
Se   14.53830000   20.18474000    9.68055000     -0.040612   -0.29341800    0.99705000
Se   20.65095000    1.24021000    1.08602000      0.840054   -0.33709800    0.46576600
Se   21.76101000    2.78458000    9.95678000      0.081783    0.79026700    0.47813300
Se   19.75979000    6.39100000    0.72760000     -0.031196    0.51062700    0.06798900
Se   21.37821000   10.27354000   10.49874000     -0.011758   -0.20019600   -0.08792300
Se   20.31929000   13.65636000    0.83719000      0.620833   -0.35138000   -0.87201300
Se   22.71361000   15.81958000   12.12137000     -0.228945    0.36310400    1.26368300
Se    0.09308000   21.78162000    2.16238000     -0.182390    0.37318200   -0.17632400
Se   20.08068000   20.51065000   15.41636000     -1.306003   -0.17502100   -0.47306800
Se    3.98270000    5.16748000    8.46429000     -0.213820    0.41623600   -0.68247000
Se    1.19855000    6.68637000   16.52698000     -0.089466   -0.90859700   -0.21744100
Se    4.00835000   10.75309000    8.29890000     -0.900719    0.68423300    0.38927600
Se    3.75018000    9.64797000   18.04633000     -0.414568   -0.26259100   -0.31233400
Se    4.69524000   18.68680000    7.37349000     -0.599809    1.38556800    0.52209200
Se    0.26079000   17.49721000   16.91161000      0.028929    0.51550300   -0.40113100
Se    3.09053000   21.87803000   11.87273000     -0.224376   -0.32725000   -0.14775500
Se    5.81359000   21.02637000   17.39449000      0.796208    0.88861400   -0.00066800
Se    7.19598000    3.57654000    5.89876000      0.121698    0.06277000    0.00049400
Se    6.06695000    3.64580000   17.16115000      0.174233   -0.12411300    0.24957200
Se    6.27687000   10.70162000    6.12143000      0.511553   -0.20617100   -0.73908200
Se    4.78654000    7.01561000   16.82089000      0.643190    0.24862300    0.15249800
Se    6.31834000   16.63583000    9.86043000      0.632877   -0.04889200    1.14637400
Se    7.11059000   17.36596000   18.67440000     -1.020224   -0.79960600   -1.02125200
Se    8.36400000   18.71946000    7.48858000      0.603552   -0.09736700    0.46325600
Se    6.32099000   22.57621000    0.46661000      0.187621    0.65145100   -0.02574800
Se   14.02227000    2.97106000    9.64294000     -0.036418    0.46839900   -0.13929600
Se   13.01602000    4.60540000   17.28143000      0.138248   -0.20728600    0.90697700
Se   13.04652000    7.76730000   10.14542000     -0.095489    1.30009700    0.89172200
Se   13.49207000   11.35803000   15.63862000      0.064848    0.35318500    0.48628100
Se   13.07501000   14.78791000    6.50515000      0.554272   -0.63490600    0.89486800
Se   13.87617000   15.10255000   16.83846000     -0.328223    0.43961200    1.04958500
Se   13.04678000   21.53558000    5.69969000      0.352566    0.21616300   -0.80167200
Se   16.49609000   22.22842000   17.64683000      0.112139    0.15870900   -1.38027100
Se   18.26253000    3.46634000    9.05282000     -0.066647   -0.29372900    0.48074400
Se   20.13687000    3.83974000   17.31579000      0.234469   -0.39231700    0.98080800
Se   18.81950000    8.79315000    8.25833000      0.501858    0.23323400   -0.71197900
Se   16.97799000   10.24476000   15.87842000     -0.633553    0.50451700    0.49315400
Se   15.23156000   16.31469000   10.52019000     -0.021934    0.34613600    0.49279200
Se   18.17096000   15.00728000   16.05821000      0.240141    0.47730200   -0.12316200
Se   18.05042000   19.19064000    8.87421000     -0.340278    0.20026400   -0.45828800
Se   20.04963000   19.60770000    2.16305000     -0.401004   -0.23034000    0.02734300
Se    4.38403000   22.84439000    8.16730000     -0.525518    0.80824100    0.67588000
Se    1.30301000    4.07815000   16.48444000      0.443941    0.99598900    0.20942400
Se    7.17083000    7.14562000   10.61555000     -0.758950   -0.29847500    0.28910600
Se    3.22747000    6.10050000   18.79666000      0.345798    0.09055000    0.23581000
Se    3.95414000   15.79142000    6.82592000      0.171342   -1.13117700    1.27212300
Se    5.58709000   13.78018000   18.85387000     -0.062580    0.40685600    0.38525700
Se    3.13903000   20.43654000    9.72681000      0.328423    0.59804500   -0.15134500
Se    0.39776000   16.69936000    0.53597000      1.501044    2.44494800   -1.44842700
Se    9.98234000   22.40340000    8.30797000      0.271134   -0.68882300   -0.29731800
Se    9.83607000    3.74871000    0.08507000     -0.399198   -1.45602100    0.23606700
Se   11.62831000    4.93161000    9.21824000     -1.450382   -1.22822800    0.44801100
Se    6.65528000    8.41857000   18.70234000     -0.153349    0.10795400   -0.34042000
Se   10.91417000   14.08358000    8.58543000     -0.580026   -0.30382200   -0.15024300
Se    8.47361000   13.05629000   17.91904000      0.077978   -0.78577800    0.45212300
Se   11.84154000   20.63913000    7.81896000     -1.105617    0.72714800    0.85672200
Se   11.58406000   14.55675000   16.71750000     -0.611669   -0.20617900    0.62205900
Se   16.43952000    0.34612000    8.36623000     -0.439784    0.09816300   -0.15897400
Se   16.29181000    2.92854000   18.06105000     -0.376332    0.49251200    0.69335500
Se   15.62835000    5.62298000    9.35821000      0.623825   -0.22807100   -0.07729500
Se   13.84551000    8.69712000   18.63519000      0.020390    0.11049200    0.28398700
Se   17.15580000   12.36530000    9.55684000     -1.117200   -0.04956700    0.17777400
Se   16.81069000   13.78696000   18.92442000     -0.015341    0.25018600    0.04837200
Se   14.68372000   18.36495000    7.17184000     -0.339250   -0.08399700   -0.24557200
Se   16.73847000   18.37138000    0.02526000     -0.841466    0.73724100   -1.56385500
Se   22.37916000   21.91590000    9.16304000     -0.331143    0.36500800   -0.01195900
Se   22.97360000    0.69269000   15.04484000     -0.610930   -0.73426200    0.74787600
Se   20.68564000    6.23535000    8.13152000     -0.925108   -0.34325200    0.11312200
Se   21.24063000    7.61669000   18.27812000      0.396942    0.16805400    1.20793900
Se   22.13294000    9.62975000    6.72041000     -0.688278    0.63368700   -0.04190600
Se   21.02407000   10.77539000   17.48119000      0.003255    0.71353400   -0.46357300
Se   19.70658000   16.60268000    7.46820000      0.543178    0.01213300    0.48725300
Se   19.99009000   16.15138000   17.09545000      0.007075   -0.54790400   -0.59581200
Se    3.12838000    2.67505000   10.42318000      1.665920   -0.05478200    0.71798600
Se    3.10999000    0.66189000   15.08213000     -0.370933    0.31941300   -0.29761300
Se    0.74223000    8.11294000    7.69945000      0.125702   -0.53107800    0.69897900
Se    1.52013000    9.85632000   17.06677000      0.108801   -0.38052200    0.06425500
Se    0.82092000   16.28249000    6.65360000     -0.019717    1.26528000    0.00658900
Se    1.69220000   13.28250000   16.77861000      0.630386    0.43356300    0.18320800
Se    0.29784000   18.89755000    7.07197000     -0.062999   -1.15672400   -0.53253800
Se    2.31098000   20.65604000   15.91748000     -0.041304   -0.60862300    0.59438800
Se    8.00700000    0.25231000    6.07638000     -0.810635   -0.40827700    0.42075400
Se   10.73230000    0.81341000   17.64558000      0.639623   -0.86064500    0.75388300
Se    7.77720000    7.26755000    6.25589000     -0.118445   -0.09654400   -0.16273800
Se    6.92198000    6.97819000   15.21882000     -0.050351    0.22907200    0.01752800
Se    7.52456000   14.08964000    6.01450000     -0.860325    0.43088500    0.69215400
Se    9.13730000   17.08311000   14.24661000     -0.104012   -0.66457700    0.15313500
Se    5.22455000   19.56066000    4.56880000      0.465452    0.19152800    1.61609800
Se    8.04643000   14.94337000   14.76026000     -0.016169    0.64233900    0.77013600
Se   14.74368000   21.72393000    3.94765000      0.614754    1.19169800    0.42910500
Se   14.17333000    1.49137000   16.77643000      0.382457   -0.65252800   -0.82610100
Se   12.94582000    7.44853000    6.59721000     -0.005882   -0.66102300   -0.90815100
Se   11.08490000    7.00520000   15.60335000      0.163810    0.33752000   -0.35828500
Se   12.94363000   11.87764000    5.06335000     -0.786451   -0.29279600    1.08456700
Se   14.68895000   14.30246000   13.41693000      0.039399   -0.10695600    0.41470900
Se   10.18782000   16.47218000    5.58717000     -1.066622    1.73117700    0.27701700
Se   13.99028000   19.70933000   17.42477000     -0.302344    0.80860600    0.47449800
Se   20.55481000    1.16718000    5.22930000     -1.610693    0.75774800   -0.57492600
Se   18.56391000    0.55657000   17.74544000      0.001307   -0.08756700   -0.35747700
Se   17.53411000    4.39832000    5.94083000      0.520681    0.22096100   -0.03133100
Se   17.94249000    6.67643000   16.39927000      0.232039    0.66793300   -0.55212400
Se   20.13039000   10.75227000    4.78342000     -0.390779   -0.55083800    0.12150300
Se   16.93389000   13.34695000   12.88396000      0.667534   -0.40549300    0.00446800
Se   16.93023000   18.83697000    5.82089000      0.362389   -0.21638900    0.02998000
Se   17.54248000   22.60993000   13.78824000     -0.476216   -0.32830000    0.50498900
Se    3.29466000    7.07513000    7.03096000      0.837287   -0.17645500    1.46508400
Se    2.91733000    4.45851000   13.47494000      0.608347    0.85791900   -0.68246700
Se    3.27990000    9.39313000    4.11318000     -0.200637    1.46981000   -0.01106200
Se    5.49780000   11.92748000   15.54828000     -0.553551    0.65616500    0.17177900
Se    5.26957000   13.44571000    6.71572000      0.229565    0.32995100    0.34920900
Se    3.99483000   18.00294000   17.90236000      0.627081   -0.85015100    0.77011600
Se    1.65873000   21.70102000    5.81848000      1.243461    0.11717400    0.64874700
Se    5.07624000   22.44987000   14.08776000      0.320239    0.25196500    0.12845400
Se   10.84114000    2.29446000    6.50656000      0.025050    0.23365000   -0.06066600
Se    9.56487000    3.38541000   15.83299000     -1.264704    1.91481000    0.47246800
Se   10.78121000   10.32934000    6.44823000      0.108975    0.03143400   -0.01482900
Se    9.59498000   11.49349000   14.82842000      0.582882    0.13759500    0.26740200
Se    8.47821000   15.05267000    9.29799000      0.543145   -0.04061000   -0.53009900
Se   12.33686000   18.26406000   16.21568000      0.094436   -0.48834500    0.35718400
Se   10.11016000   20.29556000    4.11142000     -0.458436    0.58609700   -0.91976200
Se    8.40839000   20.77939000   18.40076000     -0.026722    0.13207900   -1.01265600
Se   13.98236000    4.47472000    5.27896000      0.094744   -0.66990400    0.36234500
Se   18.59935000    2.98937000   14.98974000     -0.223589   -0.02151900    0.13167600
Se   15.76620000    9.34821000    6.47072000     -1.543394   -0.24949000   -0.42936900
Se   17.93742000    9.87439000   12.56292000      0.119069    0.20584800    0.32105400
Se   17.96339000   12.10522000    5.75062000     -1.025589    0.01572600   -0.00028100
Se   16.81909000   18.34430000   16.06315000      0.141636    0.19511400   -0.16243200
Se   15.84550000    0.79905000    4.77216000     -0.668052   -0.78027700   -0.29194700
Se   18.89542000    3.45573000   12.70317000     -0.391096    0.37932700   -0.33163200
Se    0.02041000    3.79155000    7.64400000      1.064976    0.74549600   -0.27037100
Se   22.78212000    3.54482000   14.25880000     -0.247214   -0.62446100    0.03076200
Se   19.50192000   12.65519000    8.36252000      0.589376    0.23227200    0.45269800
Se   22.74271000   11.68220000   15.91602000     -1.177742   -0.22863500    0.17952900
Se   21.48063000   13.55137000    7.02330000      0.031278   -1.47080000   -0.08243100
Se   20.63171000   17.88658000   14.06185000      0.302028    0.16445400    1.08292900
Se   19.31869000   20.99125000    7.47312000     -0.219819    0.25242900    0.98589400
Se   22.36848000   21.26142000   18.14156000     -0.272889   -0.61743800   -0.03138100
Se    3.56824000    2.71941000    5.53365000     -0.668083    0.06721400    0.13164700
Se    6.22888000    1.05993000   16.80135000      0.376455    0.06782700    0.45588200
Se   22.79596000    4.31242000    0.30099000     -0.502870   -1.16774500    0.23524300
Se    4.64965000    9.51441000   11.31214000     -0.644008   -0.01513200    0.37468000
Se    1.05372000   12.50772000    2.71254000      0.510476   -3.39607900    2.52904400
Se    3.87070000   15.60750000   15.76750000      0.021770    0.65814700   -1.62137900
Se    4.40711000   16.02850000    1.77126000      0.593042    0.71893300    0.23566900
Se    5.72497000   18.72911000   12.63899000     -0.583392   -0.91966200   -0.23016800
Se   10.86729000    0.99310000    2.57944000     -0.669712   -0.43795400    0.22001000
Se   11.58323000    1.40447000   14.00686000      0.238374    0.06906100    0.11734400
Se    9.71145000    8.85867000    2.84228000      0.536639    0.79855000    0.85907800
Se    7.87543000    8.98316000   16.16860000     -0.340005   -0.38521600   -0.12652100
Se    9.38860000   12.38661000    4.18199000      0.314008    0.42039100   -0.93422000
Se    9.68823000   12.29046000   11.52823000     -0.150691    0.40891400    0.81122000
Se    8.73414000   20.77285000    2.08665000      0.412976   -0.58300700    0.57485200
Se   11.48523000   19.14869000   14.19024000      0.197249   -0.05512300   -0.65712700
Se   18.15499000    1.49741000    6.63429000      0.635377   -0.59803800   -0.13134200
Se   14.44727000    2.11188000   13.29016000      1.019718   -0.08057700    0.03467600
Se   15.93275000    7.14608000    3.95513000     -0.710603   -0.91425200   -0.34834600
Se   15.12771000    5.18211000   15.14481000      0.266444   -0.52904500   -1.05207000
Se   14.76081000   12.87133000    2.63333000     -0.132350   -0.25531000   -0.21077000
Se   17.70775000   16.90045000   14.08889000     -0.769382    0.03929500    0.81012400
Se   15.50208000   15.71339000    4.26552000      0.513023   -0.01159400    0.18682000
Se   16.28214000   20.28526000   14.29404000      0.487030    0.51556800    0.63905900
Se   22.67404000    0.09875000    5.68847000      0.254380   -0.37473900   -0.01168200
Se   20.72103000    0.24293000   12.20020000     -0.185562   -1.32854200    0.57794200
Se   21.12200000    4.98150000    4.62751000      0.163353   -0.41319800    0.11802000
Se   20.73394000    8.76759000   14.08873000     -0.310205    0.12168300    0.37349900
Se    0.91024000   13.26798000    6.10995000      0.823626    0.45473900   -0.52679400
Se   21.60072000   14.17053000   16.10181000     -0.230992    0.08465200    0.49424200
Se   21.97362000   19.05955000    4.98567000      0.385825   -0.10940000    0.10031600
Se   21.65776000   19.28356000   10.19288000     -1.015551   -0.03882900    0.36303200
Se    0.34342000    5.07113000    5.65355000     -0.229945   -0.13747700   -0.74495100
Se   21.75067000    5.55954000   14.46346000     -0.521071    1.29254500   -0.19464000
Se   21.46222000    9.78530000    3.08883000      0.726200   -0.13527300   -0.85472800
Se    0.95594000   11.38036000   12.49779000      0.318224    1.04128700    0.02462200
Se    1.15828000   14.14870000    1.31314000      0.058086    1.71952200   -2.61074200
Se    1.11934000   20.94325000   12.83446000      0.122974   -0.13496900   -0.34361400
Se    4.20145000    0.24498000    3.73654000     -0.600082    0.15408000    0.06113800
Se    3.56471000   19.11889000   13.98366000      0.444692   -0.07190200    0.99164300
Se    9.63017000    6.66376000    7.69222000      0.033959   -0.73402500    0.25913600
Se    6.77629000    4.56534000   13.13100000      0.312012   -0.32835800   -0.41790600
Se    5.89901000    6.63335000    3.98695000      0.013812   -0.12809900   -0.16620800
Se    7.64928000   10.79525000   12.67388000      0.365716   -0.60582400    0.11786000
Se    7.86359000   17.44477000    3.33821000     -0.014699   -0.17745200   -0.41832200
Se   12.06912000   14.56505000   13.79184000     -0.260629    0.26964000    0.44632500
Se    6.77229000   21.08502000    6.89957000      0.158084    0.59699200   -0.91002500
Se    7.94063000   22.01826000   14.08411000      0.176557   -0.73085100   -0.60694300
Se   12.72843000    2.15730000    3.45678000      0.425777    0.40644600    0.63027800
Se   10.16728000    2.63558000   12.38483000      1.803621    0.58165400   -0.94534000
Se   13.87985000   10.45324000    3.49664000      0.395971   -0.13003000   -0.53080600
Se   12.28655000    9.42460000   12.98839000      0.013368   -0.86581000    0.08539400
Se   12.23696000   15.16652000    3.07732000     -0.462827    0.11593300   -0.51651500
Se   14.73230000   18.16464000   12.24793000     -0.035485   -0.51025700   -0.27618400
Se   13.62579000   18.76799000    1.94597000     -0.043371    0.57278000    0.28640200
Se   13.57514000   22.39829000   15.34658000     -0.335154    0.24155600    0.09716200
Se   17.20093000    5.54914000    0.92792000     -0.200355   -0.31257000    0.36945100
Se   16.63542000    6.26984000   13.49976000     -0.158480    0.37781500   -0.04084300
Se   17.68785000    8.65161000    4.02211000      0.534967    0.82940100   -0.45212100
Se   20.54153000   12.91872000   12.87897000      0.611730   -0.43242400   -0.51856100
Se   22.02326000   15.59979000    4.09617000      0.215432   -0.17215100   -1.08696600
Se   19.17697000   15.83223000   10.89880000      0.308287    0.15313700    0.42964200
Se   19.51902000   21.31977000    3.71092000     -0.223051    1.05784500    0.10185600
Se   16.08407000    0.61863000   11.15093000      0.562854   -0.72306000   -0.28594200
