384
23.00800000 23.00800000 19.32000000
Ge    5.33020000    5.16386000   10.61621000      0.421478    0.79388900    1.10643100
Ge    5.04077000    6.06859000    1.42729000     -1.323337   -0.18407400    0.03389300
Ge    1.51503000   11.96200000    8.13548000      0.512875   -1.31658800   -0.05615700
Ge    6.06450000   11.39832000   17.93551000      0.339276   -0.00125200    0.08543500
Ge    4.25421000   15.09573000    9.73440000      0.293355   -1.22734600   -0.86369600
Ge    8.27079000   18.22132000    1.04619000      1.526571    0.54523700    0.82773600
Ge    9.51301000   20.00131000    9.57493000     -0.458472    0.27264200   -0.53961900
Ge    5.00177000    1.90834000    0.03973000     -0.371946   -0.17807300    0.27382000
Ge    8.45552000    5.01325000   11.42539000      0.709445    0.77936100   -0.37080000
Ge   11.32193000    5.19122000    1.02788000     -0.832652    0.66231000   -0.62132600
Ge   10.58723000   11.72481000    9.36079000      0.344566   -0.24245500   -0.74348600
Ge   10.77341000   11.98090000   17.52177000     -0.038955    0.14619100   -0.12800200
Ge    9.82388000   16.79474000    7.98249000     -0.178296    0.42966900    0.16769100
Ge   11.78985000   14.76913000    0.41477000      0.259987    0.26303500   -0.05888500
Ge   10.29109000    1.98205000    9.18650000      0.665718   -0.71121400    0.63359500
Ge   15.53028000   21.18686000    0.39492000      0.566267    0.24586700    0.02447400
Ge   19.00488000    5.69418000    9.96241000      0.693842    0.02608900   -0.23704500
Ge   19.26163000    9.39044000   16.15417000      0.454075   -0.75420700    0.19176200
Ge   21.48772000   14.51225000   10.51120000     -1.293700   -1.30534500   -0.01524400
Ge   16.74548000   11.39038000   18.45568000     -0.323852   -1.26866600    0.28648900
Ge   13.89254000   16.28690000    8.49403000      0.009533    0.74611700    0.20494600
Ge   18.12998000   14.77086000    1.39644000      0.319561    0.15801500    0.47623800
Ge   18.63998000    0.58509000    9.44741000     -0.194099    1.12137400   -0.37399000
Ge   17.83899000    2.25912000    0.81154000     -0.598719   -0.30061700   -0.00673500
Ge   22.30735000    5.53433000    9.91507000     -0.149403    0.09382600    0.21985300
Ge   20.26424000    3.72084000    0.70171000      0.122811    1.00918700   -0.89668600
Ge    0.76117000    9.90896000    9.66986000     -0.116440   -0.04030800    0.56545100
Ge    1.02627000   12.06735000   18.95888000      0.309970   -1.01462600   -0.59525600
Ge   22.10289000   15.56043000    8.11579000     -0.883710    0.81768800    0.52727700
Ge    2.05169000   15.99433000   17.73305000      0.287749   -0.01223400   -0.12483900
Ge   19.90802000   21.58537000   10.28895000      1.416968   -0.43567000    0.11204700
Ge    1.73508000   21.99461000    0.11654000     -0.323571   -0.39633500    0.19085800
Ge    5.84494000    8.95411000    7.80603000     -0.010426   -0.28637100    1.13319500
Ge    0.50188000    6.45774000   18.88000000     -0.014854    0.46792700    0.69307600
Ge    0.73973000    8.37704000    5.17673000     -0.571428    0.13926200   -0.02275500
Ge    4.20048000   13.56739000   16.96360000      0.362188   -0.67619100   -0.69654000
Ge    4.42171000   18.52102000    2.70589000     -1.543209   -0.99019800   -1.66171100
Ge    2.16897000   19.44519000   18.20592000     -1.332453    0.43175800   -0.51002100
Ge    5.33704000   19.27968000    9.96556000     -0.549104   -1.00881000   -0.18520100
Ge    3.33376000   22.99751000   17.53190000      0.495096    0.00754400   -0.38754300
Ge    9.27214000    4.07201000    7.60405000      0.381180    0.37100600   -1.33247700
Ge    8.26772000    5.16979000   17.71542000     -0.043027    0.03446500   -0.32539900
Ge    6.78667000   12.64440000    4.17519000      0.096346   -0.23986700   -0.76197900
Ge    8.24074000    7.85519000    1.23285000     -1.229270   -1.12993800   -0.99071100
Ge    6.21851000   16.85046000    7.47535000      1.151004   -0.28310100   -1.60643300
Ge    8.54460000   15.48782000   17.32388000      0.532596    0.37791000   -0.42215100
Ge   10.57343000   22.99858000    5.04035000     -0.309295   -0.88180200    0.09297600
Ge   11.28158000   21.87125000   14.16270000      0.223061    0.45609900   -0.57570500
Ge   13.47307000    6.09988000    8.53807000     -0.584079    0.35751800    0.00929200
Ge   13.99430000    6.79061000   16.52136000     -0.425024    0.82931200    0.21650100
Ge   13.23978000    9.64689000    7.55910000      0.284770    0.27958100   -0.45493400
Ge   15.12510000   13.32638000   15.90098000      0.948168   -1.28921800   -1.34102100
Ge   13.44766000   17.00010000    5.27493000      0.100690    0.48100300   -0.81844200
Ge   14.40615000   17.81445000   19.05776000     -1.147504   -1.01466400    0.37512300
Ge   13.98373000   22.07039000    8.35435000     -0.863723    0.55726400    0.13860400
Ge   16.44765000    1.52698000   15.02076000     -0.863856   -0.15940500   -0.57719800
Ge   20.07021000    3.58960000    6.78661000     -0.802031    1.29002400   -0.26732400
Ge   20.33610000    6.15992000   16.70242000     -0.198368   -1.51408700   -1.06676600
Ge   17.18857000   10.50895000    7.87627000      0.705552    0.52497300   -0.17238700
Ge   19.69333000   13.23437000   17.50417000      0.920814   -0.03038500    0.10149200
Ge   18.09176000   16.62850000    5.50419000     -0.416400   -0.39922200   -0.45170700
Ge   18.56072000   20.54833000   17.31477000     -0.208953   -0.21067000    0.59961700
Ge   21.75893000    1.63197000    7.50896000      0.190464   -1.38648300    0.27774700
Ge   19.52166000   22.17943000    0.45395000     -0.981477   -0.88349600    0.02716600
Ge    4.90734000    3.00548000    7.42963000      0.810083    0.10755200   -0.24527900
Ge    3.99378000    4.88392000   16.05968000     -0.512012   -0.83138100    0.06089400
Ge    3.39820000    7.11641000    4.68055000     -0.409701   -2.55545700   -1.07417400
Ge    2.52434000    9.45194000   12.94627000      0.636165   -0.61251200    0.10533600
Ge    1.69610000   15.37271000    3.42212000      0.120081    0.74440200    0.63687400
Ge    0.59080000   18.70824000   14.70510000     -0.178907    0.19841300    0.34944400
Ge    2.37917000    1.60159000    8.51138000     -0.992618   -1.04557000   -1.94877900
Ge    5.20006000   17.94188000   15.75112000      0.114165    0.10643100   -0.43887600
Ge    9.21376000    2.93172000    2.71298000      0.271178    0.54245100   -0.14205200
Ge    9.47724000    1.01406000   15.60026000      0.066865   -0.38098700    0.25257100
Ge    8.71566000    9.37854000    5.15311000     -0.424103    0.19304500    0.27878600
Ge    9.67733000    8.77177000   14.21117000      0.448533    0.05031600   -0.47671200
Ge   11.06231000   14.40879000    5.13162000      0.383687   -1.92437400   -0.47493700
Ge   11.86131000   11.89466000   13.71888000     -0.677836   -0.03625300    0.18605400
Ge    5.61658000   21.34220000    2.99527000      0.934449   -0.15931700   -1.54849800
Ge    9.78945000   19.06386000   16.09003000     -0.585189   -0.55741200    0.35780600
Ge   13.75075000    1.70211000    6.14816000      0.008063    0.28343300   -0.62843000
Ge   11.61102000    4.53063000   15.28456000      0.548963    0.05643800   -1.08949700
Ge   15.72478000    6.28782000    6.43413000      0.031403    0.18816100    0.04317700
Ge   14.67874000    9.34901000   14.67330000     -0.241676   -0.33839500   -0.63284100
Ge   15.35475000   13.25427000    5.58973000     -0.045668    0.22350400   -0.47110200
Ge   15.03435000   16.91175000   14.49840000      0.365691   -0.27247900   -0.50516200
Ge   11.40182000   17.70995000    2.61785000     -0.079143   -0.36916500    0.42894400
Ge   10.55128000   21.52723000   16.73858000      0.063373    0.58462800    0.90285900
Ge   18.04481000    5.59338000    3.57505000      0.442353    0.33362600    1.03588600
Ge   21.14001000    2.57320000   12.24995000      0.179819    0.23456500    1.27885600
Ge   19.90168000    8.34887000    5.84932000     -0.091890    0.17084300    0.74111400
Ge   18.56255000   11.68801000   14.34450000     -0.231797   -0.23189200   -0.81984600
Ge   21.71630000   15.63360000    1.47856000     -1.792250   -0.21858100    1.05961400
Ge   18.91677000   14.56037000   13.39468000     -0.260242    1.26517000   -0.39370400
Ge   19.50789000   19.73293000    5.47198000     -0.261072   -0.26452800   -0.28009200
Ge   22.26444000   21.30403000   15.61558000      1.314571   -0.15923300   -0.24296500
Ge    5.62828000    2.48619000    3.62015000      0.153077    0.35930900    0.84738700
Ge    5.41327000    1.97583000   14.68529000     -0.423923   -0.24667900   -1.17242600
Ge    5.68235000    9.01566000    4.25210000      0.178180    1.37849300   -0.39338600
Ge    6.35384000    8.52259000   12.93337000     -0.018096   -0.09336400   -1.02512700
Ge    6.79959000   15.26043000    2.85018000     -0.868678   -0.00618200   -0.05533400
Ge    3.39431000   14.04754000   13.06005000      0.909001    0.21779700    0.05541600
Ge    5.38725000   22.99460000    6.08884000      0.438762    0.11272300   -1.12705100
Ge    7.45269000   20.35937000   12.37415000      1.071711    0.53869200    0.23514100
Ge   11.61887000    4.37822000    4.47045000      0.007354   -0.55469200    0.34739300
Ge    7.86778000    2.26860000   13.05470000     -0.621612   -0.34890600   -0.13928100
Ge   11.50843000    9.27011000    0.55768000      0.672430    0.35973300   -0.04124700
Ge   12.26067000    6.75810000   13.09253000     -1.027586    0.81235000    0.24328000
Ge    9.49164000   13.27283000    1.57704000     -0.007689   -0.59045800    0.29302300
Ge    8.89800000   14.98249000   11.87086000      0.482523   -0.23307400    0.01126000
Ge   12.14567000   20.52329000    0.62644000      0.399640   -0.24261900   -0.17194800
Ge   12.17643000   19.47422000   11.37713000      0.509465    0.24254600   -0.59228500
Ge   21.55111000    0.47035000   17.46235000      0.690127    1.11346400   -0.17056300
Ge   14.61193000    5.63795000   12.36717000     -0.324381   -0.79522000   -0.37357900
Ge   17.53501000    8.35594000    1.34177000     -0.052972   -0.39990100   -0.15006300
Ge   15.00008000    9.38175000    9.87107000      0.707009   -0.40866600    0.35230000
Ge   17.01724000   11.67953000    3.05518000      0.596059    0.25052700    0.52854000
Ge   18.23797000   14.71967000    8.67889000      0.325670    0.23655100   -0.13890200
Ge   17.71595000   17.82290000    2.15541000      0.116290    0.17442600    1.33305100
Ge   15.86103000   20.96504000   11.94722000     -0.762700    0.07657600   -0.87598000
Ge    0.33023000    1.70752000    1.68105000      0.096248   -0.47844300   -0.02455600
Ge    0.23338000   22.68224000   11.43662000     -0.437377    1.08773000   -0.20165400
Ge   21.80368000    7.39277000    3.28846000      0.150422   -1.07439100    0.11233600
Ge   22.47231000    9.55985000   12.61559000     -0.676336   -0.23665600   -0.94838400
Ge   22.07283000   13.02458000    4.36816000     -1.003013    0.35802200   -0.69209300
Ge    1.12635000   16.17120000   10.29546000      0.865274    1.66456300   -0.44899600
Ge    0.94575000   20.38749000    4.02353000     -0.413173   -0.21349000   -1.03867400
Ge   20.88850000   17.67554000   11.80827000      0.089955   -0.24087800   -1.10933200
Se    0.95979000    1.38449000   18.49229000     -0.317163   -0.09815200   -0.07588100
Se    1.43110000    3.43070000   11.76809000     -0.561857    0.47283900    0.63797400
Se    0.86959000    6.98983000    2.00898000     -0.050907    0.52303100   -0.03431800
Se    0.74904000    7.53876000   12.11545000      0.252227    0.99839500    0.03840500
Se    3.46377000   11.09875000    0.45236000     -0.575922    0.78485600    0.59697700
Se    1.65871000   13.97956000    9.35994000      0.260156   -0.41013100    0.46505000
Se    1.60769000   18.50742000    2.69950000      1.025069   -0.31598200    0.31683200
Se    1.17078000   19.13179000    9.88976000      0.190514   -0.79730700    0.29670200
Se    7.29007000    1.80685000    1.67787000     -0.467811   -0.56595000   -0.15334300
Se    7.51412000    1.36885000   10.30847000     -0.035167    0.90834900    0.12227200
Se    7.10526000    5.21617000    0.77210000      1.349973    0.08491300    0.42459300
Se   10.06743000    7.06316000   11.75114000      0.484586   -0.38555200    0.95919600
Se    8.25474000   11.11299000    0.75603000     -0.249559    0.49808000    0.21084900
Se    5.97719000   13.75323000   12.66570000     -0.615698    0.08084700    0.01395600
Se    4.76357000   20.25953000    0.88276000     -0.147447   -0.65745600    0.99667200
Se    9.31297000   18.59865000   11.80321000     -0.570569    0.38125600    0.30320900
Se   14.45377000    2.91799000    0.36227000     -0.096719   -0.14253400   -0.05173800
Se   12.70539000    0.98328000   10.32155000      0.433409    0.04954200   -0.48060700
Se   10.35326000    7.14291000   19.19388000     -0.391866   -0.44931200   -1.05144800
Se    9.60790000    9.20033000    8.39974000     -0.420262    0.66819900    0.64845200
Se   11.91347000   12.24291000    0.62852000     -0.546293   -0.07885100   -0.13051200
Se   13.35252000   11.12552000   10.37390000     -0.594841    1.56739700    0.04309400
Se   15.29433000   15.26752000    1.86431000      0.297984    0.10336400    0.01627400
Se   11.63238000   17.38158000    9.60897000      0.437326   -0.27042300   -0.44546200
Se   16.65977000    3.79735000    2.86168000     -0.282269   -0.85643800   -1.13894500
Se   16.17627000    2.98231000   10.94304000     -0.549574    0.41390200    0.14474500
Se   16.16109000    7.23822000   17.88094000      0.179991    0.15549100    0.52836000
Se   20.45165000    6.84812000   11.53624000      0.330406   -0.81513200   -0.10252400
Se   18.73363000   10.22713000    0.29020000      0.208274    0.73700800   -0.32924700
Se   16.39533000   15.27040000    7.03124000      0.254440    0.18758400    0.32859500
Se   19.37801000   17.39324000    0.47878000      1.705801   -1.18890000   -0.12972000
Se   17.70380000   19.59248000   11.14913000      1.515404   -0.25356000    0.06722700
Se    4.11899000    3.73335000    2.07185000     -0.111506    0.41807500   -0.40053900
Se    3.80310000    6.54831000   12.33646000      0.094094   -0.74669600   -0.10034700
Se    6.29958000   10.24201000    2.22609000      0.071527    0.03670200   -0.10262100
Se    5.10284000   12.76199000   10.65683000     -0.194862    0.35505800    0.11519300
Se    4.24084000   15.66339000    4.44652000      0.547531    0.06859700   -0.98373300
Se    3.45143000   16.24259000   11.66248000     -0.908985    0.32031400    0.92752600
Se    2.98106000    0.80782000    1.48824000      0.293612    0.06346800   -0.05095000
Se    6.94892000   21.06516000   10.05992000      0.883949    0.95487800    0.14984800
Se   10.88696000    6.49434000    2.96354000      0.241386   -0.56895000    1.32584700
Se    7.36731000    3.48845000    8.97709000     -0.694422   -0.80625900    1.25789900
Se   10.55489000    9.46057000   17.57985000      0.354242    1.00329300    0.09931500
Se    7.42084000   10.77113000    9.18540000      0.465216   -0.53376800   -0.17974000
Se   10.62817000   17.33642000    0.25558000     -0.687490    0.28232200    0.18028400
Se   11.53318000   14.53418000   11.48876000     -0.528543    0.19944200   -0.24100400
Se   13.56773000   22.51022000    0.98582000     -0.593426    0.10583300   -0.05670800
Se   11.34029000   21.90511000   11.43178000     -0.159346   -0.77277300    0.55968000
Se   13.50046000    4.83107000    1.53948000      1.648039    0.00016700    0.01320800
Se   17.42509000    7.23910000   10.85652000     -0.372859   -0.08527800   -0.26176700
Se   15.22824000    9.44495000    1.22629000      0.243998    0.37671700    0.03179600
Se   15.64525000   10.33874000   12.40280000     -0.170295   -0.46261300    0.11312600
Se   18.73951000   13.92926000    3.79125000     -0.764703   -0.21446100   -0.57675600
Se   14.52033000   13.37877000   10.06440000      0.027411   -0.91583200   -0.13619500
Se   16.88596000   22.88776000    1.74974000      1.327989   -0.03666400   -0.33556700
Se   14.57790000   20.17352000    9.69808000     -0.267163   -0.14342600    0.69748200
Se   20.64828000    1.23318000    1.03131000      0.957086   -0.07851300    0.60239500
Se   21.72277000    2.80930000   10.01108000      0.319775    0.88496100   -0.29617300
Se   19.76963000    6.39405000    0.73429000     -0.224625    0.53924800    0.02868700
Se   21.38378000   10.25886000   10.48055000      0.139384   -0.24237600    0.09176700
Se   20.44690000   13.66197000    0.81573000     -0.055618   -0.50817300   -0.67164600
Se   22.65224000   15.86141000   12.12947000      0.210832    0.32508800    1.37987200
Se    0.14753000   21.80986000    2.11499000     -0.484026    0.22920500    0.01830200
Se   20.04430000   20.55634000   15.36652000     -1.100628    0.04066900   -0.53172800
Se    3.98947000    5.17164000    8.47981000     -0.295300    0.52489400   -0.75558700
Se    1.18077000    6.70014000   16.52931000     -0.039968   -0.78855900   -0.51285400
Se    4.02911000   10.75448000    8.32932000     -0.861674    0.55144500    0.42418800
Se    3.75266000    9.62901000   18.03053000     -0.286808   -0.24384400   -0.23132500
Se    4.68551000   18.64078000    7.33212000     -0.793991    1.54583500    0.62819500
Se    0.22943000   17.53898000   16.92308000      0.134459    0.43389100   -0.33417900
Se    3.12285000   21.89026000   11.90725000     -0.265739   -0.32955500   -0.22056100
Se    5.90416000   21.09692000   17.41349000      0.909044    0.73082600    0.04648400
Se    7.19983000    3.57769000    5.85505000      0.008965    0.05513400   -0.02415500
Se    6.07296000    3.63856000   17.18679000      0.098252    0.06250800    0.20322100
Se    6.29409000   10.68139000    6.11727000      0.428304   -0.02319300   -0.67466000
Se    4.79403000    7.06280000   16.74013000      0.659167    0.09631200    0.06403800
Se    6.27845000   16.64432000    9.82854000      0.726691   -0.10604100    1.22954800
Se    7.07985000   17.33948000   18.66555000     -1.017935   -0.66558800   -0.95937500
Se    8.33822000   18.74593000    7.46966000      0.877299   -0.49717400    0.68258700
Se    6.38697000   22.56830000    0.52159000     -0.008188    1.02241100   -0.15688200
Se   14.05711000    3.00791000    9.66458000     -0.339887    0.24299800   -0.20185800
Se   12.98415000    4.65100000   17.29915000     -0.067013   -0.16651700    0.52030100
Se   13.05027000    7.79539000   10.17143000     -0.028938    1.00388000    0.75977200
Se   13.50392000   11.33966000   15.62517000     -0.069832    0.78634300    0.70425700
Se   13.12531000   14.85655000    6.52680000      0.234716   -0.82065200    0.52851200
Se   13.87781000   15.07188000   16.76776000     -0.684563    1.04723900    1.37555300
Se   13.04155000   21.55528000    5.64059000     -0.064573    0.17656200   -0.33666000
Se   16.51545000   22.27636000   17.58288000      0.019648   -0.32677500   -0.78491500
Se   18.27704000    3.43219000    9.04569000     -0.055481   -0.24878400    0.44386800
Se   20.13632000    3.81666000   17.29701000      0.226067   -0.31174300    1.05302400
Se   18.75896000    8.73416000    8.28607000      0.445567    0.32397000   -0.85931900
Se   16.95320000   10.26255000   15.93915000     -0.410805    0.46557300    0.41790300
Se   15.23283000   16.31385000   10.49078000      0.132342    0.31857200    0.63144800
Se   18.19415000   15.00989000   16.00018000      0.254942    0.53872800    0.01785400
Se   18.06289000   19.17539000    8.86399000     -0.328106    0.16209800   -0.35262200
Se   20.10974000   19.59535000    2.12532000     -0.649372    0.13627200    0.39523100
Se    4.35723000   22.89107000    8.12799000     -0.761265    0.53895000    1.52143800
Se    1.21715000    4.10703000   16.51813000      0.505192    0.86134100    0.15928400
Se    7.16928000    7.16774000   10.66735000     -0.750239   -0.25316700    0.05666600
Se    3.25384000    6.11441000   18.76121000      0.383342    0.06378800    0.24484600
Se    3.94010000   15.79820000    6.85726000      0.333215   -1.04163000    0.96177000
Se    5.55003000   13.84865000   18.87847000     -0.095094    0.16096800    0.07416200
Se    3.09456000   20.44810000    9.67748000      0.513767    0.61229100   -0.11372500
Se    0.40438000   16.73591000    0.50849000      0.571060    1.76654900   -0.83266600
Se    9.98228000   22.39225000    8.29814000      0.236874   -0.68380100   -0.24776700
Se    9.84045000    3.66879000    0.06972000     -0.071177   -0.95619100    0.22871900
Se   11.57604000    4.94593000    9.25698000     -0.589050   -0.77446600    0.31019300
Se    6.64967000    8.45738000   18.67682000      0.118827    0.02865000   -0.06909000
Se   10.87755000   14.08914000    8.54816000     -0.371962   -0.22852500   -0.02338200
Se    8.46230000   13.01924000   17.95440000      0.334018   -0.46103900    0.22635800
Se   11.78057000   20.63815000    7.80638000     -0.915881    0.73828300    0.88955200
Se   11.58070000   14.52092000   16.75813000     -0.716299   -0.13740400    0.52788100
Se   16.50275000    0.31860000    8.35655000     -0.445559    0.01354200    0.11661400
Se   16.33048000    2.91879000   18.06407000     -0.630158    0.43879800    0.80896600
Se   15.62659000    5.60984000    9.34957000      0.939098   -0.13889000    0.05890500
Se   13.85113000    8.78509000   18.71825000     -0.231646   -0.02555900   -0.10147100
Se   17.12780000   12.38880000    9.59569000     -0.828360   -0.08150700   -0.14108100
Se   16.80869000   13.76011000   18.89547000      0.111916    0.34676400    0.04238200
Se   14.73295000   18.32596000    7.11907000     -0.335248   -0.01925200   -0.20828200
Se   16.72215000   18.33054000    0.01708000      0.198637    0.73911100   -0.76027900
Se   22.33269000   22.02193000    9.15307000     -0.263584    0.14842900   -0.04091700
Se   22.95894000    0.70954000   15.03477000     -0.581430   -0.94081700    0.84541900
Se   20.65372000    6.24889000    8.09893000     -0.802847   -0.44093200    0.13927000
Se   21.24177000    7.65135000   18.26306000      0.472733    0.23023500    1.42355600
Se   22.11901000    9.65556000    6.74014000     -0.286760    0.17132400   -0.16640800
Se   21.04560000   10.79951000   17.55752000      0.259721    0.68501300   -0.62607200
Se   19.69669000   16.59310000    7.44937000      0.813915    0.00701500    0.60539300
Se   19.99933000   16.12022000   17.12010000     -0.071364   -0.44103800   -0.66886500
Se    3.12161000    2.62603000   10.41280000      1.785430    0.07596300    1.18065700
Se    3.12951000    0.75621000   15.11767000     -0.431280    0.01887600   -0.39114900
Se    0.72241000    8.09822000    7.73337000     -0.171788   -0.20148800    0.27276200
Se    1.56853000    9.87197000   17.05479000     -0.156417   -0.42198300    0.02790700
Se    0.81478000   16.25945000    6.64604000      0.267495    1.38492200   -0.21455900
Se    1.74040000   13.22703000   16.73908000      0.259329    0.40496000    0.46117100
Se    0.29649000   18.85670000    7.05365000     -0.066579   -1.05838100   -0.66732500
Se    2.29884000   20.61945000   15.91597000     -0.041621   -0.41562800    0.75118000
Se    7.98762000    0.28528000    6.09083000     -0.588415   -0.28112400    0.37225600
Se   10.81711000    0.78278000   17.68279000      0.271002   -0.62226100    0.10086400
Se    7.77674000    7.23406000    6.31305000     -0.081378    0.22194200   -0.44716700
Se    6.94662000    6.96012000   15.18248000     -0.080788    0.43192900    0.05778800
Se    7.49650000   14.08397000    5.94994000     -0.511060    0.79176900    1.11450400
Se    9.15378000   17.05751000   14.29650000     -0.078938   -0.69631200    0.08077100
Se    5.17030000   19.61706000    4.62544000      0.369562   -0.22672000    1.37805700
Se    8.12766000   14.89394000   14.78312000     -0.065935    0.55065700    0.71758000
Se   14.70560000   21.74156000    4.00466000      0.939931    1.07573900   -0.03719100
Se   14.19444000    1.50845000   16.80062000      0.419205   -0.64292100   -0.75228900
Se   12.90653000    7.39895000    6.61579000      0.002410   -0.40752900   -0.86206700
Se   11.13064000    7.02818000   15.64989000      0.154257    0.15928200   -0.56655900
Se   12.91901000   11.87822000    5.02841000     -0.541215   -0.32457200    0.95522900
Se   14.66873000   14.29391000   13.36890000      0.083667   -0.05434500    0.77183800
Se   10.14583000   16.43702000    5.59189000     -1.105962    1.82754900    0.30768000
Se   14.02330000   19.72029000   17.48891000     -0.368950    0.76456000    0.39520500
Se   20.58140000    1.17639000    5.24855000     -1.642301    0.81444600   -0.61885400
Se   18.55093000    0.57343000   17.72404000     -0.062335   -0.07299600   -0.14594400
Se   17.48393000    4.46179000    5.93278000      0.703981    0.02457600    0.09742500
Se   17.94481000    6.71042000   16.38778000      0.474703    0.56058100   -0.45786500
Se   20.15651000   10.73541000    4.71810000     -0.719208   -0.36599500    0.31222100
Se   16.90900000   13.32207000   12.85097000      0.546413   -0.35661800    0.02337000
Se   16.93000000   18.85318000    5.77475000      0.284657   -0.20509600    0.12086600
Se   17.54702000   22.63267000   13.76598000     -0.431261   -0.45255700    0.54063100
Se    3.26372000    7.07012000    7.05236000      0.705362   -0.05476400    1.54912700
Se    2.94747000    4.51398000   13.51236000      0.318433    0.47371200   -0.82178100
Se    3.24736000    9.34693000    4.09863000     -0.239934    1.91054300   -0.26269300
Se    5.44842000   11.94195000   15.51823000     -0.384424    0.52161400    0.39146700
Se    5.31282000   13.43041000    6.69828000     -0.128134    0.28315800    0.31041000
Se    4.00704000   17.99049000   17.92025000      0.384774   -0.60430900    0.62593100
Se    1.64948000   21.67783000    5.79745000      1.674041    0.12875700    0.85025900
Se    5.07527000   22.42015000   14.12252000      0.160154    0.65752300    0.30004800
Se   10.79618000    2.21609000    6.50873000      0.087346    0.50880700   -0.07073800
Se    9.52571000    3.39511000   15.79697000     -1.390801    1.52004400    0.57021300
Se   10.72915000   10.30892000    6.48650000      0.212275   -0.07019300   -0.10637400
Se    9.52650000   11.45809000   14.81279000      0.436885    0.02580500    0.07054100
Se    8.49298000   15.07844000    9.28963000      0.217348   -0.33653000   -0.31454200
Se   12.33136000   18.24770000   16.17867000      0.479496   -0.63992000    1.06471300
Se   10.09600000   20.35635000    4.09049000     -0.364517    0.41349800   -0.90928700
Se    8.42065000   20.79113000   18.47068000     -0.187748    0.14954300   -1.13468300
Se   13.94747000    4.48230000    5.28198000      0.483450   -0.70948700    0.41543200
Se   18.64227000    3.02316000   14.98849000     -0.328741   -0.12304000    0.27980000
Se   15.71980000    9.39568000    6.44558000     -1.219135   -0.04617800   -0.14460400
Se   17.95584000    9.86451000   12.55953000      0.233838    0.24432200    0.44421400
Se   17.93705000   12.08284000    5.74664000     -0.821583   -0.06713100   -0.09529500
Se   16.84019000   18.38317000   16.09408000      0.110830    0.27426100   -0.30451700
Se   15.88674000    0.77478000    4.78935000     -0.622982   -0.52372900   -0.23431800
Se   18.91693000    3.44520000   12.71679000     -0.464845    0.50096800   -0.58445300
Se    0.05258000    3.80919000    7.63758000      0.699107    0.60932300   -0.25989500
Se   22.75735000    3.54448000   14.32552000      0.196588   -1.13094100   -0.04752200
Se   19.55553000   12.60570000    8.36125000      0.059481    0.38641600    0.64369400
Se   22.75908000   11.70587000   15.89899000     -1.254533   -0.27033700    0.23847100
Se   21.52454000   13.49703000    7.04062000     -0.006385   -1.00077400    0.06058100
Se   20.61695000   17.84706000   14.02799000      0.455920    0.31537800    1.23706900
Se   19.32850000   20.97022000    7.53848000     -0.135307    0.12920300    0.67907500
Se   22.31053000   21.22066000   18.13803000     -0.168051   -0.31447000    0.04007900
Se    3.56229000    2.69639000    5.48313000     -0.540481    0.21175300    0.11039900
Se    6.21704000    1.09633000   16.75976000      0.715106   -0.30577800    0.98357000
Se   22.79205000    4.30495000    0.29379000     -0.306157   -0.86171600    0.28483200
Se    4.59396000    9.50506000   11.32920000     -0.590785    0.01387900    0.25554400
Se    0.99271000   12.53029000    2.71411000      0.481653   -3.65040500    2.54843700
Se    3.87630000   15.59739000   15.73426000     -0.127335    0.44060600   -1.53536800
Se    4.39260000   16.01001000    1.78334000      0.587535    0.65463700    0.24943500
Se    5.69127000   18.81379000   12.62330000     -0.535228   -1.12654500   -0.29252500
Se   10.83157000    0.97501000    2.60384000     -0.192452   -0.41853800    0.19785700
Se   11.57439000    1.39603000   14.04677000      0.068001    0.38824500   -0.19928400
Se    9.68138000    8.84786000    2.86019000      0.881715    1.00124700    1.00864200
Se    7.86310000    9.00900000   16.14142000     -0.402077   -0.51535800   -0.08718900
Se    9.42957000   12.39589000    4.18694000      0.248836    0.35205400   -0.93960400
Se    9.66897000   12.28851000   11.51607000     -0.228862    0.58690000    1.16965300
Se    8.74470000   20.75465000    2.04479000      0.380587   -0.56963600    0.67596700
Se   11.51008000   19.13828000   14.24058000     -0.018655    0.34961600   -1.25584400
Se   18.14070000    1.51595000    6.71400000      0.707809   -0.57922900   -0.13448000
Se   14.47484000    2.08551000   13.31146000      0.974008   -0.08098800   -0.00279800
Se   15.94063000    7.15847000    3.98597000     -0.720919   -0.72740800   -0.45373300
Se   15.14659000    5.19755000   15.15378000     -0.238771   -1.33668900   -0.50136600
Se   14.75432000   12.76701000    2.60566000      0.161617   -0.23933000   -0.17045400
Se   17.73323000   16.95222000   14.02223000     -0.836129   -0.12439000    0.80732700
Se   15.52075000   15.67976000    4.22262000      0.152236    0.13207000    0.40985900
Se   16.21781000   20.27455000   14.30225000      0.501730    0.47901200    0.35446900
Se   22.68812000    0.02196000    5.68318000     -0.154129   -0.15706700   -0.04301300
Se   20.69664000    0.25989000   12.19340000     -0.111767   -1.51797900    0.75372400
Se   21.10707000    4.93575000    4.56908000      0.269599   -0.27907700    0.36704200
Se   20.68266000    8.76279000   14.03125000     -0.338539    0.28020900    0.54398200
Se    0.86237000   13.22392000    6.06318000      1.210338    0.45911700   -0.31389200
Se   21.59864000   14.15664000   16.07924000     -0.275368   -0.06873600    0.59084000
Se   22.00091000   19.07186000    4.92191000      0.202061   -0.24984200    0.29416400
Se   21.66843000   19.27834000   10.19977000     -1.281819   -0.03395300    0.30772600
Se    0.32958000    5.06623000    5.63318000     -0.323101   -0.07971200   -0.76286500
Se   21.77722000    5.53074000   14.40577000     -0.975478    1.98351300   -0.04141000
Se   21.52225000    9.74568000    3.08537000      0.834041    0.52943900   -1.09282300
Se    0.99242000   11.39212000   12.49496000      0.398408    0.26285600    0.18965500
Se    1.14947000   14.15103000    1.31241000      0.207889    2.08778200   -2.73724400
Se    1.16942000   20.91898000   12.88602000      0.090330   -0.11693700   -0.46290300
Se    4.26333000    0.21022000    3.66421000     -0.679487    0.41925400    0.50193700
Se    3.60722000   19.15493000   14.01038000      0.147358   -0.03450800    0.98052900
Se    9.64466000    6.70666000    7.75548000      0.042747   -0.66242000    0.22876300
Se    6.73717000    4.64830000   13.09385000      0.118646   -0.67701100    0.07110300
Se    5.90383000    6.68480000    3.95116000      0.100302   -0.66083000   -0.02898600
Se    7.61289000   10.80572000   12.65458000      0.542576   -0.62563100    0.08969500
Se    7.81021000   17.42755000    3.31247000     -0.025791   -0.05408000   -0.13980400
Se   12.03386000   14.53690000   13.84534000     -0.341926    0.20065000   -0.27573900
Se    6.81791000   21.10421000    6.89483000      0.201225    0.41717800   -0.66267600
Se    7.96400000   22.04789000   14.08589000      0.018724   -0.79169200   -0.63843200
Se   12.73802000    2.17415000    3.46839000      0.254463    0.30357600    0.47361700
Se   10.18348000    2.64103000   12.34848000      0.599354    0.14236600   -0.32855600
Se   13.91946000   10.43128000    3.45276000      0.020848    0.01680700   -0.14286700
Se   12.32977000    9.48008000   13.00409000      0.071568   -1.06301300    0.05145100
Se   12.22866000   15.15397000    3.07214000     -0.417550    0.18508300   -0.62728600
Se   14.71884000   18.22335000   12.22181000      0.016736   -0.54114600    0.09671000
Se   13.63958000   18.75789000    2.05899000     -0.033240    0.50807600   -0.31696500
Se   13.56801000   22.37055000   15.33347000     -0.269449    0.27489900    0.15883000
Se   17.18472000    5.52696000    0.93682000     -0.212410   -0.30393300    0.19847700
Se   16.56223000    6.22127000   13.57585000      0.715533    0.87753900   -0.51979300
Se   17.68016000    8.69260000    4.00927000      0.481550    0.84726600   -0.34513800
Se   20.47867000   12.92354000   12.87621000      0.783237   -0.52202100   -0.53828500
Se   22.05498000   15.60278000    4.08580000     -0.010196   -0.10642100   -1.01284300
Se   19.21109000   15.84641000   10.95755000      0.067686    0.08412600    0.13693900
Se   19.53507000   21.39231000    3.70625000     -0.078949    0.36095400   -0.05596800
Se   16.04206000    0.57448000   11.11735000      0.542882   -0.51098800   -0.18509000
