384
23.00800000 23.00800000 19.32000000
Ge    5.57845000    5.34357000   10.67709000     -0.428121   -0.75165100   -0.22964500
Ge    4.99164000    6.23545000    1.24241000      0.513208   -0.62711300    0.10217700
Ge    1.80274000   11.64176000    8.00667000     -0.551396    0.89947600    0.13813800
Ge    6.09279000   11.42884000   18.08221000     -0.060393    0.13962700    0.02642700
Ge    4.28694000   14.80253000    9.37986000      0.039854    0.50547200    1.88582100
Ge    8.38420000   17.99024000    1.04442000     -0.845032    0.07108900   -0.18824200
Ge    9.58501000   19.98046000    9.68617000     -0.804463   -0.09551600    0.36027400
Ge    4.85324000    2.50317000    0.06803000      0.430211   -0.69667500   -0.40521600
Ge    8.75883000    5.16308000   11.64945000     -0.072649   -0.41823100   -0.25652900
Ge   10.96814000    5.20954000    1.04855000      0.889813    0.79174800   -0.19213300
Ge   10.84143000   11.93754000    9.42652000     -0.319605   -0.43149700    0.17788100
Ge   11.13382000   12.03658000   17.63870000     -0.744473   -0.37561800    0.30444300
Ge    9.62462000   16.79203000    7.92987000      0.982137   -1.38131800    0.65953400
Ge   11.77510000   15.09206000    0.37712000      0.671051   -0.70381400   -0.49729000
Ge   10.66660000    1.73530000    9.08961000     -0.924518    0.28061200    0.12699900
Ge   15.74971000   20.96770000    0.64770000     -0.337435    0.51807200   -0.65835000
Ge   19.07426000    5.59648000    9.88867000     -0.628520   -0.47215800    0.45624700
Ge   19.33402000    9.35820000   16.52802000     -0.142686    0.04553200   -0.07389300
Ge   21.27462000   14.24336000   10.61865000      0.121107   -0.34988900    0.31979400
Ge   16.73145000   11.08334000   18.65643000      0.823457    1.29975700    0.43338400
Ge   13.74183000   16.55261000    8.71021000      1.219896   -0.22397100   -0.68259200
Ge   17.93623000   14.60316000    1.50796000     -0.226685    0.14829700   -0.32256200
Ge   19.25778000    0.77524000    9.34144000     -0.043823   -0.58727500    0.35394100
Ge   17.94758000    2.57019000    0.84162000      0.183695   -0.26605800    0.55157500
Ge   22.53519000    5.80008000    9.45122000     -0.119483   -0.30133800   -0.43272100
Ge   20.47617000    4.08632000    0.29568000     -0.548294   -0.27600200    1.75047300
Ge    0.90706000   10.14432000   10.06570000      0.408349   -0.08756400   -0.04677600
Ge    0.80281000   11.76711000   18.93419000      1.266277    0.28567800   -0.17157300
Ge   22.13405000   15.61117000    8.25252000      0.549269   -0.98902500   -0.38899100
Ge    2.08547000   16.07587000   17.57477000      0.379198    0.03036400   -0.26553300
Ge   20.19356000   21.34128000   10.86995000     -1.140281    0.51997200   -0.73785700
Ge    1.88461000   21.59607000    0.10782000     -0.033002    0.19066100    0.11130000
Ge    6.23580000    8.91750000    8.10680000     -0.401320   -0.16036600    0.21220200
Ge    0.56505000    6.63169000   19.03153000      0.273202   -0.11018900    0.37686900
Ge    0.59747000    8.17775000    4.91511000     -0.086947    0.42241400    0.60011400
Ge    4.27088000   13.42475000   16.92721000     -0.514209    1.03731700   -0.45209300
Ge    3.85923000   18.45508000    2.55065000      2.131452    0.72403700    0.41050100
Ge    1.54090000   19.25452000   18.10206000      0.853416    0.01761000    1.20013400
Ge    5.08383000   19.37416000   10.16196000      0.600548    0.08977000   -1.14500900
Ge    3.36200000   22.89359000   17.43773000     -0.057695    0.17486800   -0.33000100
Ge    9.39661000    4.10998000    7.21633000     -0.421925   -0.42213200    0.16224200
Ge    8.34477000    4.92944000   17.69845000      0.023701    0.27199700    0.49552800
Ge    6.91211000   12.41722000    3.82080000      0.197822    0.68700400    0.28830200
Ge    7.95271000    7.42134000    1.17331000      0.561054    0.20677900   -0.34312400
Ge    6.51196000   16.81061000    7.02197000     -1.018242    0.33545000    0.74761200
Ge    8.67721000   15.58640000   17.34541000     -0.065176    0.10333600    0.37331500
Ge   10.31040000   22.69437000    4.93814000      0.162224    1.74371400    1.14155700
Ge   11.31112000   22.17137000   14.01514000      0.068323   -0.42553000    1.08186100
Ge   13.31669000    6.24983000    8.80655000     -0.158379    0.01236400    0.00872600
Ge   14.03920000    6.98674000   16.33874000      0.477129   -0.73594100    0.46830300
Ge   13.14584000    9.46285000    7.48435000     -0.902858   -0.21283600    0.32909600
Ge   15.32238000   13.10896000   15.75427000     -0.263881    1.15284300   -0.11701800
Ge   13.27607000   17.28719000    4.89381000      0.635161   -0.64853600    0.43275400
Ge   14.41728000   17.57928000    0.01021000      0.641129    0.76055900    0.25216300
Ge   13.63608000   22.12757000    8.39784000      0.125578    0.12306200   -0.14494000
Ge   16.51147000    1.45532000   14.85480000      1.066540    0.36028600    1.35300600
Ge   19.83959000    4.15714000    7.07961000     -0.336695   -1.90212100   -1.25221900
Ge   20.54750000    5.84978000   16.57930000     -0.030343    0.57475400   -0.48715200
Ge   17.08203000   10.61442000    8.13270000     -0.244388    0.15039700   -1.02272400
Ge   19.88111000   13.10265000   17.57210000     -0.724024    0.63660600    0.37973700
Ge   18.21276000   16.66134000    5.36843000     -0.252243   -0.59966100    0.57154900
Ge   18.62174000   20.22554000   17.22883000      0.150060    1.12557700   -0.32687800
Ge   21.83405000    1.15888000    7.33373000      0.372551    1.01186500   -1.32588800
Ge   19.68157000   21.88838000    0.42806000     -0.490410    0.35953900    0.03556500
Ge    4.96867000    3.23009000    7.15633000      0.387551   -0.36603200   -0.04912500
Ge    3.64946000    4.97353000   16.23280000      0.293598    0.32885000    0.32369000
Ge    3.08666000    6.48431000    4.69197000      0.235984    0.88106000    0.17276800
Ge    2.90664000    8.86642000   13.37124000     -0.487776    0.63843600    0.85201500
Ge    1.68074000   15.56383000    3.59720000     -0.036473   -0.72407800   -0.47287600
Ge    0.21593000   18.55155000   14.59193000     -0.466647   -0.14022400   -0.93642100
Ge    2.04497000    1.46491000    8.13089000      0.062664    0.41280100    0.48356200
Ge    5.11223000   17.49513000   15.50511000      0.228761    0.21427000    0.78481800
Ge    9.35305000    2.92347000    2.49639000     -0.038934    0.01713700    0.25405400
Ge    9.25035000    0.96264000   15.63120000      0.197979    0.85089100    0.45752700
Ge    8.72091000    9.30723000    5.19724000     -0.606643   -0.86548100    0.56086200
Ge    9.69625000    8.28849000   14.00893000     -0.128901    0.76116100    0.69486500
Ge   11.22916000   14.13344000    5.13662000      0.023132    0.77384100    0.57121100
Ge   11.35315000   11.82587000   14.09542000      0.848409    0.14891000   -0.45864400
Ge    5.85132000   20.96934000    2.70246000      0.495144    0.66453700    0.52876400
Ge   10.08545000   19.03096000   16.45769000      0.342640   -0.43510300   -0.46812900
Ge   13.96814000    2.01986000    5.63316000      0.124864   -1.89544100    1.68842200
Ge   11.57722000    4.22826000   14.78233000     -0.363441    0.65501100    1.06445300
Ge   15.64686000    6.19325000    6.55353000     -0.141618    0.57417300   -0.01271500
Ge   14.57790000    9.52831000   14.46830000      0.472894   -0.34530800    0.73225700
Ge   15.23689000   13.15471000    5.25728000     -0.481094    0.09869700    0.01645900
Ge   15.20597000   17.05218000   14.42009000     -0.326121   -0.23751000    0.08345800
Ge   11.39866000   17.58865000    2.39567000     -0.248852    0.40182400    0.54787800
Ge   10.92381000   21.67446000   16.87929000      0.347511   -0.39010800   -0.70054700
Ge   18.19605000    5.92632000    3.83898000     -0.590709   -0.44965500    0.10311300
Ge   21.22475000    2.60224000   12.68321000     -0.525109   -0.01341100   -0.99051600
Ge   19.79308000    8.59196000    6.20361000      0.536027   -0.33538900   -0.47675000
Ge   18.71868000   11.53646000   14.18329000      0.238926    0.73700200    0.60271500
Ge   21.36296000   15.73724000    1.58656000      1.096534   -1.25453700   -0.83287200
Ge   18.51819000   14.68665000   13.32369000      0.635539   -0.11091500   -0.65004800
Ge   19.58771000   19.92055000    5.38709000      0.013043    0.52688900   -0.03696100
Ge   22.62309000   20.95980000   15.66106000     -0.752179    0.28843700    0.02150700
Ge    5.49473000    2.73249000    3.97680000     -0.095784   -0.45460000   -1.35014600
Ge    5.25569000    2.27580000   14.71559000      0.296014   -0.51242300    0.70620200
Ge    5.28567000    9.18150000    4.43232000      0.365898   -0.56127600   -1.13951500
Ge    6.02803000    8.47263000   12.48200000     -0.162963    0.71574800    0.98727500
Ge    6.67427000   15.05857000    2.52086000      0.165462    0.24919100    0.41304800
Ge    3.25276000   14.11754000   12.55544000      0.302097   -0.19724300    0.44744000
Ge    5.41370000   22.67972000    5.94363000     -0.616155   -0.04106400    0.16900200
Ge    7.66335000   20.53459000   12.37795000     -0.779093   -1.19349600   -0.54028200
Ge   11.53304000    4.18308000    4.58697000     -0.060741    0.01394000    0.47466800
Ge    7.18246000    2.28020000   12.97682000      1.131625    0.32806300   -0.68405200
Ge   11.72278000    9.61450000    0.66859000     -0.800466   -0.28012300    0.30112200
Ge   12.33131000    6.95758000   13.40073000      1.477797   -0.26634000   -0.01488900
Ge    9.45068000   13.38449000    1.89244000     -0.279682    0.18159600   -1.81389400
Ge    9.09863000   15.06403000   11.99892000     -0.212871    0.01466000   -0.35958900
Ge   12.21122000   20.54503000    0.98055000      0.651542   -0.16718700   -0.42027000
Ge   12.41173000   19.28394000   11.49502000     -0.322745   -0.40760500   -0.51234200
Ge   21.79025000    0.68645000   17.22779000     -0.706401   -0.25320600    2.20461100
Ge   14.48596000    5.59060000   12.09427000      0.481607    0.04980000    0.51891800
Ge   17.84872000    8.23755000    1.29958000     -0.524305    0.47505800   -0.35189400
Ge   15.29833000    9.26428000    9.85630000     -0.052795    0.31291300    0.72411000
Ge   17.67769000   11.53891000    3.24884000     -0.127496   -0.05253700   -0.85336300
Ge   18.65884000   14.80608000    8.55531000     -0.717274   -0.54049800    0.05301600
Ge   17.64088000   17.70254000    2.77371000      0.437558    0.38969000   -0.77021200
Ge   15.60054000   20.82240000   11.59444000      0.947693   -0.32457000    0.18560900
Ge    0.21639000    1.31022000    1.76394000      0.106505    1.31250000    0.01399600
Ge    0.22952000   22.57824000   11.52221000     -0.038011    0.54131500    0.29356000
Ge   21.59184000    7.21083000    3.48834000     -0.753035   -0.16611300   -0.12721000
Ge   22.46215000    9.56123000   12.50565000      0.577782   -0.34937100    0.83014400
Ge   21.50087000   13.17209000    4.12867000      0.352206   -0.20271000    0.38436000
Ge    1.29438000   16.68611000   10.38635000     -0.105463   -0.61502900    0.48149600
Ge    0.97115000   20.34464000    3.70852000      0.833651    0.16834800    0.95883300
Ge   20.89248000   17.58134000   11.63778000      0.337746    0.02978400    1.62274600
Se    0.94709000    1.47126000   18.59936000      0.557480   -0.84264800   -0.55426200
Se    1.28984000    3.13151000   11.64082000      0.681531   -0.11490000   -0.26324300
Se    0.76673000    7.10340000    2.43935000      0.398659   -0.46658800   -0.44506500
Se    1.01012000    7.55446000   12.50567000     -1.130611    0.45699600   -0.68383400
Se    3.47784000   11.04563000    0.46091000     -0.193365   -0.11094500   -0.46821600
Se    1.38638000   13.83450000    9.49032000      0.533961   -0.12231800   -0.17564300
Se    1.62565000   17.97291000    2.24617000     -1.788260   -0.06959300    0.43724900
Se    1.05424000   19.29244000   10.10900000      0.676099    0.20985700   -0.28333100
Se    7.29359000    1.70354000    1.39232000     -0.480148    2.00935400    0.54619200
Se    7.37056000    1.56227000   10.34784000     -0.141957   -0.84443100    1.12815100
Se    7.27564000    4.94865000    0.98845000     -0.112824    0.84340400    0.22625900
Se   10.46148000    7.12402000   11.94583000     -0.844984   -0.23447100   -0.69423800
Se    7.94562000   11.09380000    0.75554000      0.828686    1.24540400    0.32517900
Se    5.79165000   13.94174000   12.82584000     -0.267707   -0.06209600   -0.48946500
Se    4.45470000   20.26185000    0.87323000     -0.645746   -0.54463600   -0.26336600
Se    9.04606000   18.63679000   11.92082000      0.285954   -0.23619800    0.10278700
Se   14.38214000    3.04981000    0.45110000     -0.645763    0.50357500    0.31879100
Se   12.74210000    1.11541000   10.20642000      0.824337   -0.42394900    0.13591900
Se   10.43818000    7.35819000   18.97913000     -0.706903   -0.96883400    0.72821200
Se    9.78008000    9.04336000    8.55816000     -0.224113    0.66338400    0.62577500
Se   11.84070000   12.28096000    0.59959000      0.066076    0.34075400    0.67944000
Se   13.51612000   11.39179000   10.26439000     -1.003843   -1.28196500   -0.25925700
Se   15.43014000   15.19731000    1.70749000      0.422117   -0.07999600    0.16975800
Se   11.66470000   17.51436000    9.19439000     -0.605628    0.35435100    0.51623800
Se   16.58372000    3.99973000    2.81824000      0.416056   -0.66071300    0.49880800
Se   16.04530000    2.96582000   10.90796000     -0.228354    0.04353100    0.81921700
Se   16.46778000    7.54359000   17.90063000      0.111245   -0.48054300   -0.07524200
Se   20.10021000    6.99613000   11.52390000      0.473358    0.04819800    0.38590900
Se   18.85965000   10.56204000    0.30466000      0.207242   -0.61226200    0.39796700
Se   16.60847000   15.31940000    7.08002000      0.686328    0.06788100   -0.19227300
Se   19.72562000   17.07233000    0.65156000     -1.017606    0.68691300    0.19027100
Se   18.03671000   19.32287000   11.16041000     -0.571626    0.52849900   -0.05675300
Se    4.04190000    3.91356000    1.78320000     -0.533274    0.75920000    1.02123300
Se    3.87188000    6.42563000   12.33824000     -0.507250    0.39680300    0.09218600
Se    6.06710000   10.51855000    2.43638000     -0.514471   -0.80502900   -0.03760800
Se    5.21664000   12.91378000   10.71104000      0.135658   -0.29098600    0.40045700
Se    4.24073000   15.77363000    4.19295000      0.486296   -0.51797400    0.63931800
Se    3.57595000   16.40728000   11.57564000     -0.715998    0.11292400   -0.66832700
Se    3.29763000    0.51962000    1.16142000      0.171859    0.39415600    0.43743000
Se    7.22686000   21.22331000   10.11661000     -0.553678   -0.12964700   -0.26350000
Se   10.69987000    6.57708000    3.36412000     -0.152389   -0.04766100   -0.21612700
Se    7.31856000    3.26485000    8.89580000      0.229648    1.45670400   -0.63268100
Se   10.86728000    9.66425000   17.36801000      0.154407    0.02170000    0.43186100
Se    7.12548000   10.90811000    9.23460000      0.560583    0.17405700    0.71570200
Se   10.49972000   17.20367000   19.16308000      0.263344    0.38923300    0.52113500
Se   11.45827000   14.25251000   11.39483000      0.220334    0.34178900    0.33374100
Se   13.57268000   22.57622000    1.01188000      0.516422   -0.28231600    0.23067600
Se   11.45074000   21.56204000   11.72991000      0.158062    0.55918700   -0.82141500
Se   13.47051000    5.10512000    1.72660000     -0.526133   -0.51919800   -0.95597100
Se   17.70241000    7.20765000   11.43654000     -0.118331   -0.18150400   -0.42434900
Se   15.57443000    9.91230000    1.13091000     -0.600322   -1.51233800   -0.54653000
Se   15.79362000   10.27408000   12.31483000     -0.542981   -0.17887400   -0.43871500
Se   18.22226000   13.88190000    3.98086000      0.819054    0.60513100   -0.28505400
Se   14.34503000   13.49550000   10.34429000      0.877107    0.85922400   -0.36800900
Se   17.21878000   22.61472000    1.93804000      0.565959   -0.40347800   -0.76146400
Se   14.52914000   20.00749000    9.61145000     -0.838845   -0.02580300   -0.62520800
Se   20.84441000    1.22357000    0.83715000     -0.505431   -0.22644300    0.30753200
Se   21.60117000    3.26577000   10.17317000      0.390259    0.05846200    0.65819400
Se   19.75997000    6.59948000    0.76488000      0.445814    0.11986100   -0.14678100
Se   21.50457000   10.07491000   10.41070000     -0.495059    0.17022700   -0.23001700
Se   21.13630000   13.37697000    0.49922000     -0.165401    0.98641800    0.52955300
Se   22.60444000   16.07655000   12.44010000      1.072163   -0.22464500   -1.09654800
Se    0.18570000   21.89692000    1.96503000     -0.443206   -1.26714100   -0.27076300
Se   19.62746000   20.93369000   14.92277000     -0.228413   -0.01115200    0.27879900
Se    3.94458000    5.26946000    8.43028000      0.080971   -0.73644100    0.44287300
Se    1.05523000    6.64716000   16.30920000      0.134613    0.86191300   -0.06856600
Se    3.93814000   10.90941000    8.62231000      0.556141   -0.03836800   -0.29907200
Se    3.74033000    9.49324000   17.97289000     -0.304893    0.29833500    0.38984800
Se    4.43350000   18.62626000    7.15721000      0.219046   -0.43402500    0.56904600
Se    0.03525000   17.85266000   16.90211000     -1.007339   -1.30455300   -0.64090500
Se    3.23343000   21.90205000   12.04108000     -0.036612    0.36146900   -0.43343600
Se    6.70929000   21.67669000   17.47360000     -1.959573   -0.38019300   -1.78386900
Se    7.18263000    3.60230000    5.53333000      0.208164    0.31921500    0.33430900
Se    6.10693000    3.72869000   17.37996000     -0.468632    0.61294200   -0.45451700
Se    6.53858000   10.58818000    5.98817000      0.092844    0.10091900    0.29744100
Se    5.00081000    7.25210000   16.14893000     -0.772076   -0.94548100    0.06317300
Se    6.22836000   16.68447000    9.76527000      0.301064   -0.56425200   -0.85418000
Se    6.73866000   17.02952000   18.49928000      0.773069    0.02160800    0.44905200
Se    8.46587000   18.71242000    7.60665000     -0.537812    1.37953100    0.42637000
Se    6.81057000   22.64268000    0.84370000     -0.309765   -1.46067100   -0.11773500
Se   13.97925000    3.20990000    9.65811000     -0.010889   -0.36390400   -0.15752100
Se   12.70266000    4.94794000   17.39474000      0.086811   -0.05084100   -0.60139600
Se   13.12619000    8.12687000   10.43720000      0.402427   -0.29458000   -0.42479200
Se   13.45220000   11.55630000   15.85445000     -0.206194   -0.29737800    0.07817000
Se   13.43425000   15.11254000    6.72009000     -0.435766   -0.44870900   -0.08317400
Se   13.72461000   15.15489000   16.66394000      0.176417   -0.27011600    0.41901300
Se   12.71596000   21.72666000    5.40136000      0.701066   -0.00435500    0.20079600
Se   16.67300000   22.31785000   17.06588000      0.740369   -0.85463500    0.97279100
Se   18.35524000    3.20889000    9.14900000     -0.157005    0.68390800    0.05596400
Se   20.17353000    3.54086000   17.38587000     -0.225717   -0.41696300   -1.17849400
Se   18.38183000    8.52987000    8.24683000     -0.367912    0.58412900    0.25304700
Se   16.77099000   10.50709000   16.42564000      0.353662   -0.26276400   -1.15040500
Se   15.36202000   16.37771000   10.50225000     -0.462067    0.16983000   -0.49980300
Se   18.36343000   15.13395000   15.71392000     -0.950064   -0.08078100    0.51995800
Se   17.99838000   19.09561000    8.77143000     -0.474657    0.08880700    0.32903300
Se   20.21949000   19.58953000    2.05253000     -0.853205    0.24615400    0.75364300
Se    4.09966000    0.29994000    8.26467000      1.202435   -0.30155000   -0.58058900
Se    0.82990000    4.42769000   16.77573000      0.293319   -1.02624000    0.23817400
Se    7.09727000    7.25756000   10.76264000      1.054555    0.10596500   -1.66246900
Se    3.50459000    6.23481000   18.56729000     -0.209589    0.23010700   -0.09056500
Se    4.00528000   15.57738000    7.20425000      0.059488   -0.16480200   -1.58811000
Se    5.24760000   14.22660000   18.92375000      0.179303   -0.70981400   -0.63818800
Se    2.97442000   20.66203000    9.40076000     -0.089106   -0.13250800    0.76722600
Se    0.39392000   17.20878000    0.28991000     -0.444397   -0.62196500    0.27839900
Se    9.85290000   22.33086000    8.23389000     -0.013709    0.56495300    0.25686300
Se    9.94633000    2.99578000    0.04164000      0.543789    0.87410500   -0.03149300
Se   11.29821000    4.88641000    9.53594000      0.566574   -0.13612400   -0.21415500
Se    6.69973000    8.68935000   18.49096000      0.339730   -0.43111200   -0.17715800
Se   10.61714000   14.07153000    8.24580000      0.388209   -0.58420000    0.16289800
Se    8.59657000   12.71865000   18.16448000      0.333081   -0.05161100   -0.40197200
Se   11.45320000   20.65980000    7.88976000      1.022756    0.05053300   -0.14264900
Se   11.38184000   14.38101000   17.06847000      0.342651    0.93588500   -1.06308400
Se   16.76551000    0.04446000    8.46696000     -0.526898   -0.49952900    0.82186000
Se   16.29386000    2.96984000   18.27606000     -0.739012    0.15985300   -0.24100000
Se   15.83278000    5.55468000    9.28183000     -1.238878    0.48393200   -0.20089200
Se   13.80379000    9.20508000   18.82829000      0.673619   -0.18547100   -0.55733100
Se   16.77905000   12.53571000    9.75322000     -0.039734    0.00616100   -0.44738700
Se   16.82599000   13.56993000   18.67871000     -0.072321   -0.39615900    0.15206000
Se   14.90236000   18.11046000    6.68873000     -0.428620    0.24714700   -0.07378100
Se   17.06363000   18.28669000    0.01464000     -0.944207    0.11438800    0.75090700
Se   21.98216000   22.64801000    9.11551000      0.377501   -1.48839200    1.35753500
Se   22.74894000    0.43981000   15.16505000      1.010455   -0.63773600   -1.40962400
Se   20.34179000    6.27170000    7.85963000      0.968386    1.84000800    0.60420300
Se   21.32011000    7.84825000   18.49933000     -0.244468   -0.47145900    0.05906600
Se   22.03520000    9.73345000    6.86280000      0.076955   -0.20253800    0.15757700
Se   21.36612000   11.09663000   17.85957000      0.325304   -1.10201200   -0.25609800
Se   19.94720000   16.57671000    7.44968000      0.197631    0.41782900   -0.59331000
Se   20.01031000   15.89232000   17.10055000      0.072561    0.85821100    0.24234400
Se    3.31975000    2.27921000   10.56330000     -1.362162    0.17693500   -0.50992400
Se    3.08990000    1.30391000   15.24211000     -0.419067   -0.84838300   -0.01279700
Se    0.47702000    8.05728000    7.96099000      0.157415    0.15878400   -0.31878900
Se    1.72144000    9.84943000   16.90331000     -0.366310   -0.00495900   -0.00522500
Se    0.90568000   16.38117000    6.50616000      0.375946   -2.32661200    0.10859400
Se    1.90684000   12.94163000   16.68685000     -0.492767    0.16407000    0.66752900
Se    0.25053000   18.44993000    6.73988000     -0.711530    2.74153100    0.06041200
Se    2.23223000   20.41455000   16.13370000      0.125131    1.42187900    0.06051900
Se    7.78104000    0.52772000    6.27161000     -0.447889   -0.22661900   -0.27320700
Se   11.42284000    0.60673000   17.97638000     -0.083823    0.63119500    0.34303500
Se    7.77371000    7.14983000    6.47347000      0.382390    0.66501300   -0.61063900
Se    7.05478000    7.01176000   14.96360000     -0.032228   -0.17144000   -0.18799300
Se    7.34460000   14.37316000    5.80734000     -0.203632    0.04905900    0.42539100
Se    9.29980000   16.79604000   14.63516000      0.094608    0.40264200    0.19027800
Se    4.86997000   19.80214000    5.25046000     -0.016325    0.23559000   -0.69127000
Se    8.57579000   14.60501000   15.08513000     -0.808733   -0.25800600   -0.14442600
Se   14.84386000   21.97876000    4.08662000     -0.892859   -0.59941200   -0.20772700
Se   14.51937000    1.44352000   16.74060000      0.529356   -0.36269700   -0.47989300
Se   12.66737000    7.05364000    6.54795000      0.608852    0.35110100    0.36062100
Se   11.39317000    7.12688000   15.64876000     -0.944601   -0.32329600   -0.16657300
Se   12.69776000   11.80904000    4.99795000      0.525125    0.03986100   -0.20923500
Se   14.58289000   14.19506000   13.35040000      0.319420   -0.24699700    0.50012600
Se    9.68827000   16.45281000    5.62420000      0.600175   -0.76154500   -0.83023600
Se   14.05317000   19.94919000   18.09740000     -0.715854   -0.47861800    0.53918300
Se   20.33263000    1.39789000    5.23103000     -0.416524   -0.49018500    0.28596400
Se   18.52006000    0.68238000   17.64041000     -0.038529   -0.25741800    0.31643900
Se   17.57468000    4.70016000    5.96858000      0.671184   -0.34785600    0.30927500
Se   18.14871000    7.09363000   16.22492000      0.029439   -0.16547400    0.10609400
Se   20.18104000   10.56513000    4.30016000      0.477628    0.33814700   -0.41861100
Se   16.78555000   13.08591000   12.65075000      0.177804    0.78336500    0.73844200
Se   17.01079000   18.93471000    5.49550000      0.414534    0.06811700   -0.08938700
Se   17.52379000   22.55180000   13.74812000      0.511849   -0.86268700    0.24632200
Se    3.19038000    7.17944000    7.45715000     -0.060722    0.71233000   -1.13674100
Se    3.06495000    4.65515000   13.69760000     -0.156695   -0.59907200   -0.42431900
Se    2.98238000    9.34810000    4.01034000     -0.276984   -0.74097900    0.37211200
Se    5.17668000   12.01358000   15.37584000      0.840916   -0.63588900    0.10972700
Se    5.38098000   13.36675000    6.70413000     -0.061848    0.14374600   -0.11434900
Se    4.01698000   17.83954000   18.10072000     -0.845978   -0.12081100   -0.81357200
Se    1.98520000   21.50734000    5.80996000     -0.951791    0.20608200   -0.33991500
Se    5.07272000   22.56638000   14.47598000     -0.415361    0.84616100   -0.12808600
Se   10.57128000    1.97752000    6.49125000      0.742194    1.08843200   -0.14393900
Se    8.98667000    3.70108000   15.65409000      0.953188   -0.74466500   -0.74803900
Se   10.54040000   10.20576000    6.57244000      0.307906   -0.17236400    0.28234700
Se    9.08883000   11.16147000   14.71461000     -0.648820   -0.42635800    0.07317200
Se    8.40392000   14.98697000    9.31638000     -0.049382    0.55543100   -0.16701500
Se   12.48980000   18.01230000   16.26496000     -0.376228    0.96141300   -0.70755500
Se    9.99303000   20.72425000    3.85629000      0.270831   -2.68719000    0.21099300
Se    8.47027000   20.92039000   18.56735000      1.935051   -0.54116800   -0.16142600
Se   13.96074000    4.37839000    5.41635000      0.218978    1.25391900   -0.25654400
Se   18.72011000    3.16490000   15.00986000     -1.066781   -0.33100900   -0.72449200
Se   15.20087000    9.76842000    6.40962000      1.192507    0.04215100    0.23780000
Se   18.18709000    9.80679000   12.65892000     -0.487910   -0.56551600   -0.51590000
Se   17.60362000   11.91299000    5.69854000      0.190029    0.03132000    0.84582300
Se   16.97236000   18.78201000   16.16658000     -0.921192   -0.05416100   -0.19971000
Se   16.10770000    0.66511000    4.89082000      0.352015    0.78728900    0.08363400
Se   18.90083000    3.49252000   12.62911000     -0.114749   -0.14376400    0.36280600
Se    0.36205000    4.11476000    7.54616000     -0.309134    0.30488000   -0.00613500
Se   22.59768000    3.41886000   14.71617000     -0.318368    1.33519600   -0.53833900
Se   19.79194000   12.42221000    8.61594000     -0.105542    1.02654800    0.34904500
Se   22.45310000   11.74606000   15.85574000     -0.155855   -0.66157900   -0.51519700
Se   21.80401000   13.06645000    7.21053000     -0.339771    0.55435100   -0.47461500
Se   20.70825000   17.75853000   14.07401000      0.040651    0.83297700    0.43045200
Se   19.42689000   20.83685000    8.02851000      0.197738   -0.11364200   -0.83777800
Se   21.88089000   20.95755000   18.10510000      0.390895    0.62315600   -0.51350100
Se    3.42875000    2.65826000    5.20012000     -0.451244    0.48037500    0.67206500
Se    6.47623000    1.17480000   16.86376000      0.536078    0.50992200   -0.13712300
Se   22.83167000    4.17790000    0.35141000      0.887283    0.71639500    0.22224500
Se    4.10441000    9.49640000   11.36052000      0.313596    0.19588500   -0.91639500
Se    0.77993000   12.18939000    2.92555000     -0.242170    0.79276200   -0.24816200
Se    3.75558000   15.45524000   15.17024000     -0.759351   -0.39359800    0.39892400
Se    4.43220000   16.04798000    1.86602000     -0.369847    0.19375100   -0.98440600
Se    5.48472000   19.09315000   12.54894000      0.809166   -0.34969800    0.82069100
Se   10.69717000    0.73818000    2.76849000      0.538148    0.50361100   -0.29528600
Se   11.49105000    1.70237000   14.15851000     -0.231537    0.15503300   -0.67170300
Se    9.81287000    8.99900000    3.05161000      0.302729   -0.43884100   -0.30296100
Se    7.67631000    9.02918000   15.97678000      0.267771    0.42299400    0.96911600
Se    9.68590000   12.47277000    4.00086000     -0.568128   -1.03362500    1.05179400
Se    9.46471000   12.45985000   11.76181000      0.122802   -0.28142900   -0.37662700
Se    8.83481000   20.46304000    1.87542000     -0.403064   -0.51120800   -0.58976500
Se   11.59380000   19.23150000   14.19523000     -0.208794   -0.23054100    1.18020400
Se   18.31157000    1.47049000    7.10464000      0.456828   -0.33932600   -1.20926500
Se   14.88618000    1.91694000   13.34627000     -0.945107    0.64787800   -1.63147100
Se   15.89621000    7.20046000    4.02164000      0.347475    0.26382200   -0.25654600
Se   14.95793000    4.77954000   15.33737000     -0.275609    1.15150300   -0.46917400
Se   14.92487000   12.17601000    2.38928000      0.469813    1.31635000    0.78956800
Se   17.60059000   17.25899000   13.75147000     -0.100846   -0.32568400   -0.22067600
Se   15.56069000   15.58342000    4.08306000     -0.817361    1.07097800    0.19595600
Se   15.94350000   20.29267000   14.38538000      0.330075   -0.30930600   -0.03146000
Se   22.68695000   22.53104000    5.61148000      0.605571    0.03681200   -0.37302000
Se   20.60639000    0.09259000   12.51181000      0.743254    0.35005300    0.60724900
Se   21.07933000    4.57048000    4.29735000     -0.313606    0.12654800   -0.05393600
Se   20.29223000    8.85448000   13.83158000      0.831254    0.44850400    0.84488200
Se    0.96202000   12.97897000    5.68059000      0.338675   -0.26138000   -0.36640700
Se   21.57100000   14.00502000   16.05051000      0.461225    0.39820800   -0.37150600
Se   22.04655000   18.99413000    4.64549000     -0.456097   -0.02086300    0.14915300
Se   21.35068000   19.32376000   10.19764000      0.805955   -0.80867200   -0.63420700
Se    0.16769000    5.00069000    5.29745000      0.644499    0.19808700    0.25395200
Se   21.69684000    5.74164000   14.08793000     -0.098511   -1.12545100    0.91412100
Se   22.09619000    9.89342000    2.79181000     -0.428314   -0.11374800    0.65420900
Se    1.28837000   11.26287000   12.58151000     -0.378352   -0.73547200    0.16430900
Se    1.13020000   14.34831000    1.07609000      0.379984   -0.88310100    1.14727600
Se    1.49703000   20.76510000   13.02132000     -0.528579    0.20176700   -0.62653100
Se    4.51188000    0.08991000    3.35058000     -0.396150   -0.19254900    0.18457700
Se    3.85485000   19.41664000   14.41147000      0.341931   -0.25973700   -0.21208300
Se    9.72861000    6.65806000    8.17240000     -0.433806   -0.25673900   -0.35577700
Se    6.52223000    4.84638000   13.03054000      1.200313   -1.17744900    0.11093300
Se    5.97855000    6.81252000    3.78747000     -0.532988    0.64390300    0.76492700
Se    7.54156000   10.70826000   12.50287000      0.554407    0.04906300   -0.11036800
Se    7.44757000   17.30437000    3.22735000      0.445696   -0.15433000   -0.37056300
Se   11.71505000   14.37860000   13.93774000      0.253658   -0.00010100   -0.71051100
Se    7.29406000   21.18653000    6.78834000     -0.459695    0.60583300   -0.28060800
Se    8.07452000   22.09536000   13.99371000     -0.293991    0.43274800    0.58784500
Se   12.80895000    2.29230000    3.55444000     -0.641713   -0.38559600   -1.53966900
Se   10.25810000    2.67405000   12.20463000     -0.293743    0.05502400    0.65167800
Se   13.99508000   10.21044000    3.29463000     -1.007195    0.08795800    0.55226900
Se   12.59640000    9.57093000   13.09553000     -1.246785    0.13737100   -0.48667300
Se   12.08735000   15.14153000    2.85110000      0.117914    0.07131400    0.41770600
Se   14.67154000   18.41411000   12.24877000      0.499657   -0.73698500    0.70706100
Se   13.72961000   18.80585000    2.57330000     -0.027416   -0.04378100   -1.13726700
Se   13.44927000   22.25206000   15.31596000     -0.053930    0.01083000    0.23017800
Se   17.03536000    5.31755000    0.98877000      0.326481    0.77204000   -0.95828400
Se   16.40677000    6.27799000   13.66709000     -0.898095   -0.51825300   -0.37897000
Se   17.67534000    9.04926000    3.88232000     -0.168713   -1.51641700    0.20564900
Se   20.28638000   12.88633000   12.71437000      0.124186    0.41804300    0.13788800
Se   22.11386000   15.71302000    3.83182000     -0.869915    0.27440700    0.44953300
Se   19.29424000   15.88237000   11.21320000     -0.948876   -0.48672500   -1.34821100
Se   19.68423000   21.83398000    3.70134000      0.244581   -0.35277200    0.18642800
Se   15.91101000    0.18610000   10.88371000      0.466195    0.34518900   -0.16259800
