384
23.00800000 23.00800000 19.32000000
Ge    5.65960000    5.32448000   10.73256000     -0.363899   -0.00504500   -0.36786900
Ge    4.99130000    6.19772000    1.15707000      0.806958    0.43784500    0.63259600
Ge    1.87818000   11.57513000    7.93731000     -1.101004    1.04661400    0.22123300
Ge    6.11658000   11.50044000   18.17621000     -0.422986    0.02894500   -0.43997300
Ge    4.30710000   14.71956000    9.49017000     -0.584854    1.56283200    0.35723500
Ge    8.32621000   17.89479000    0.91139000     -0.998073   -0.59745300    0.10474500
Ge    9.42681000   19.95308000    9.78858000      0.122549    0.28348300    0.64484800
Ge    4.84513000    2.68939000    0.06117000      0.340098   -0.68636000    0.08648500
Ge    9.01228000    5.18850000   11.64542000     -0.406181   -0.54159600   -0.46985900
Ge   10.90565000    5.45829000    0.99753000      0.800455   -1.20632200    1.13182000
Ge   10.93696000   11.87914000    9.45017000     -0.328324   -0.14772100    0.00712900
Ge   11.13932000   11.99750000   17.82693000      0.332944    1.40301000   -0.77706700
Ge    9.74468000   16.74638000    7.91080000     -0.903391   -1.18941900   -0.42377000
Ge   11.94781000   15.11527000    0.24809000      0.666985    0.11540100   -0.50675700
Ge   10.73980000    1.62004000    9.13422000     -0.775157    0.35482400    0.24071700
Ge   15.80358000   21.05022000    0.63088000      0.246843    0.24773500   -0.47641300
Ge   18.97143000    5.45888000    9.99332000      0.304676    0.30740200   -0.06208200
Ge   19.37021000    9.33071000   16.72238000      0.189027    1.16868700    0.09745300
Ge   21.12878000   13.94401000   10.74672000      0.759446    0.84579800   -1.19437700
Ge   16.82349000   11.16064000   18.79024000      1.779672   -0.27835400   -0.54820600
Ge   13.81146000   16.74207000    8.62048000      1.048590    0.00563800   -0.55456700
Ge   17.83592000   14.55364000    1.52136000      1.657028   -0.18256200   -0.52995500
Ge   19.56892000    0.80033000    9.30665000     -0.775443   -0.10425300    0.64459200
Ge   18.00299000    2.65885000    0.98274000     -0.076350    0.02274700   -0.15388600
Ge   22.61058000    5.87914000    9.08039000     -0.737402    0.33934300    0.71440900
Ge   20.48170000    4.24481000    0.36547000      0.234821   -1.22517800    0.13951800
Ge    1.05864000   10.26590000   10.27877000      0.190084   -0.10253100   -0.54567000
Ge    1.00347000   11.62375000   18.85563000      0.839418    0.35255000    0.09552700
Ge   22.18948000   15.41977000    8.25971000      1.049044   -0.57215500   -0.50107400
Ge    2.18073000   16.13215000   17.40448000     -0.968912   -0.59971300   -0.39568200
Ge   20.16542000   21.26822000   10.97257000     -0.637119    0.34177000   -0.61497600
Ge    2.00206000   21.33972000    0.01371000     -0.494639    0.87955600    0.89749100
Ge    6.36484000    8.85040000    8.40099000     -0.614245   -0.21452800   -0.23222700
Ge    0.66101000    6.72810000   19.29205000      0.165601   -0.15169300   -0.03512100
Ge    0.45952000    8.16661000    4.95447000     -0.094512    0.18515700    0.42863700
Ge    4.26525000   13.60960000   16.80211000     -1.063703   -0.90708400   -1.99822400
Ge    3.87531000   18.51523000    2.52837000     -0.396524   -0.56728800    1.30631600
Ge    1.32075000   19.12271000   18.22914000      0.414336    0.38359300   -0.68552800
Ge    5.05364000   19.42776000    9.96651000      0.617512   -0.01060900    0.00258600
Ge    3.37115000   22.87224000   17.27716000     -0.237894    0.07606600   -0.12446600
Ge    9.37143000    4.04991000    6.97804000     -1.443805    0.92241900    0.76860800
Ge    8.40524000    4.83778000   17.77661000      0.245706   -0.26210700    0.03937800
Ge    7.03913000   12.41242000    3.62472000      0.075703    0.35209900    0.95597500
Ge    7.85894000    7.20284000    0.98890000      0.948329    2.13373800   -0.00367800
Ge    6.49281000   16.88356000    6.87079000     -0.573908    0.34232800    0.49893400
Ge    8.77630000   15.65595000   17.43645000     -0.327671    0.16343600   -0.17121200
Ge   10.15390000   22.74222000    5.09347000     -0.181398   -0.11798400   -0.17311200
Ge   11.34382000   22.14636000   14.11849000     -0.742137   -0.20650000   -0.25483000
Ge   13.05539000    6.35216000    9.01216000      1.085002   -0.14769900   -0.72996200
Ge   14.13599000    6.97701000   16.38061000      0.238732   -0.45072300    0.28817100
Ge   12.94086000    9.32239000    7.45839000     -0.464216   -0.15107600    0.45934400
Ge   15.44194000   13.16054000   15.58275000     -0.553257    0.07332500    1.45121100
Ge   13.34418000   17.28603000    4.75857000     -0.394116   -0.69356500   -0.01522700
Ge   14.34288000   17.53541000    0.24903000      0.748923    0.73492800    0.13957400
Ge   13.43046000   22.19076000    8.40925000      0.988032   -0.46008000   -0.62142200
Ge   16.68124000    1.52501000   14.98579000     -0.005940   -0.29711000   -0.64528000
Ge   19.72564000    4.20782000    7.00915000      2.834306   -1.16027500    1.08536000
Ge   20.63791000    5.76176000   16.34942000     -0.334202   -0.09805900    1.08111500
Ge   16.95236000   10.69163000    8.01725000     -0.446144    0.12897700   -0.47148400
Ge   19.88724000   13.19417000   17.67182000      0.084069    0.47912800   -0.18016900
Ge   18.20540000   16.51580000    5.36747000      0.708817    0.13095200    0.37209300
Ge   18.68288000   20.27099000   17.12952000      0.398958    0.76316300    0.26709700
Ge   21.98627000    1.02504000    7.01431000      0.307149    0.36911700   -0.36571700
Ge   19.59586000   21.74455000    0.41229000     -0.107261    0.36239300   -0.00129800
Ge    5.13646000    3.24419000    6.94758000     -0.344032   -0.12629500    0.89318300
Ge    3.48827000    5.07265000   16.41385000      0.095218   -0.41955300   -1.21975300
Ge    2.96468000    6.22836000    4.67854000      0.394316    0.94123100    0.22518200
Ge    3.19194000    8.87058000   13.84596000     -0.768411   -0.19817100   -0.76236900
Ge    1.67942000   15.53493000    3.57939000     -0.368586   -0.83485900   -0.07642500
Ge   22.94551000   18.46646000   14.34364000      2.503932    0.34900100   -0.16030600
Ge    1.83001000    1.46759000    7.96759000      1.134640   -0.04003200    0.42124700
Ge    5.16306000   17.29804000   15.59318000     -0.621302    0.48109100    0.09488000
Ge    9.40317000    2.97502000    2.42304000     -0.004580   -0.27465600   -0.08204700
Ge    9.18904000    1.16298000   15.79398000     -0.026127    0.57881000    0.19308600
Ge    8.54420000    9.10704000    5.41784000      1.381124    1.25247500   -1.38605600
Ge    9.71131000    8.18578000   14.03046000     -0.599497    0.56100000    0.49485700
Ge   11.34368000   14.10627000    5.28606000     -0.631832    0.56543300    0.15532400
Ge   11.19137000   11.81253000   14.22158000      0.669920   -0.31396200    0.03310600
Ge    6.09824000   20.89938000    2.55256000     -0.697922    0.14819500    0.67069600
Ge   10.27172000   18.87931000   16.58691000     -0.398293   -0.18423800   -0.31143200
Ge   14.06792000    1.87265000    5.64560000     -0.346738   -0.09576400    0.22540800
Ge   11.53088000    4.25454000   14.74091000     -0.272826    1.70398100    0.91462000
Ge   15.51335000    6.36081000    6.64517000     -0.213472    0.16461500   -0.07209500
Ge   14.61870000    9.45203000   14.41277000     -0.090340   -0.03122500    0.46876000
Ge   15.07131000   13.14192000    5.02966000      0.021203   -0.30269200   -0.07751400
Ge   15.25204000   17.03109000   14.37199000     -0.873382   -1.06156400    1.44981900
Ge   11.32494000   17.58255000    2.44173000      0.010182    0.29647000    0.40300400
Ge   11.22538000   21.65831000   16.82992000      0.237405    0.61204200    0.45524700
Ge   18.22025000    6.09220000    4.07263000     -0.371663   -0.34829800   -0.75792300
Ge   21.18257000    2.61404000   12.81422000     -0.307427    0.09597500   -1.31824300
Ge   19.83886000    8.64919000    6.35130000     -0.339393   -0.30309800   -0.42331300
Ge   18.83190000   11.55115000   14.17736000     -0.192568    0.03501600    0.49228700
Ge   21.46783000   15.64793000    1.48083000      0.911736   -1.30669600   -0.73035600
Ge   18.46418000   14.84315000   13.14906000     -0.021948   -0.28679100    0.66973600
Ge   19.60634000   20.14066000    5.32928000      0.060985   -0.42806800    0.28885500
Ge   22.67166000   20.78086000   15.64552000     -0.095647   -0.03476900    0.49459200
Ge    5.35623000    2.79065000    3.92692000     -0.184737   -0.48285200   -1.55760600
Ge    5.17949000    2.33952000   14.78224000      0.622953    0.48684500    0.47652200
Ge    5.13300000    9.26414000    4.23354000      0.288752   -1.42708200    1.53599100
Ge    5.81433000    8.60806000   12.41947000      0.187844   -0.23469900   -0.42186600
Ge    6.56429000   14.97373000    2.41366000     -0.055053    0.42139600    0.37191200
Ge    3.26244000   13.99456000   12.44956000     -0.218665    0.29700500    0.05918900
Ge    5.17755000   22.58945000    5.76924000      0.040253    0.12939200    1.24977500
Ge    7.65427000   20.40426000   12.32784000     -1.452307    1.68739200    0.70219100
Ge   11.40955000    4.02587000    4.74689000      0.921565    0.03215200   -0.00504900
Ge    7.09264000    2.34958000   12.75497000      0.931767   -0.61391000    0.98061600
Ge   11.59497000    9.82000000    0.82482000      0.771075   -0.79523600   -0.38080800
Ge   12.58300000    7.08088000   13.56316000      0.791069   -0.35829300   -1.04265700
Ge    9.38215000   13.40261000    1.72434000      0.175767    0.12995400    0.21205800
Ge    9.18691000   15.10238000   11.99854000     -0.701196    0.19071600   -0.34636200
Ge   12.42760000   20.51606000    1.09063000     -1.491004   -0.59775000    0.38476300
Ge   12.49405000   19.05938000   11.41423000     -0.287051    0.49237300   -0.22443000
Ge   21.84398000    0.80051000   17.49276000     -0.449799   -0.78623200    0.12234600
Ge   14.51337000    5.52476000   11.99818000      0.112246   -0.29493400   -0.21321100
Ge   17.87990000    8.21609000    1.19696000     -0.731850    0.87426500   -0.08748100
Ge   15.50793000    9.25488000   10.01785000     -0.401555   -0.33811500   -0.46978800
Ge   18.05129000   11.49580000    3.24360000     -0.615108    0.01688200   -0.69167400
Ge   18.75269000   14.74341000    8.46751000      0.191791    0.72505900   -0.03577100
Ge   17.73225000   17.72590000    2.90224000      0.369953    0.67692600   -0.88689600
Ge   15.74166000   20.70248000   11.55265000      0.286314   -1.05253900   -0.62290300
Ge    0.16400000    1.32869000    1.89379000      0.301972   -0.44772200   -0.76566200
Ge    0.19783000   22.71706000   11.65296000      0.069950    0.38263400    0.34670100
Ge   21.27751000    6.88044000    3.60342000     -0.018358   -0.22682900   -0.25478400
Ge   22.51986000    9.53255000   12.54800000     -0.787443   -0.49740700    0.34342900
Ge   21.18146000   13.21762000    4.02917000      0.383181    0.20115200    0.44214700
Ge    1.37016000   16.89880000   10.51229000     -1.686764   -0.70664100   -0.69472800
Ge    1.24374000   20.35815000    3.66899000     -0.150217   -0.40807400   -0.04034200
Ge   20.86602000   17.55540000   11.90177000      0.694255   -0.44683100   -0.74421300
Se    1.05818000    1.33073000   18.45403000      0.581187   -0.22344400    0.32842700
Se    1.34299000    2.97261000   11.54252000     -0.537507    0.52595500    0.91273000
Se    0.78987000    7.08464000    2.56681000     -0.285236   -0.47764600   -0.13282800
Se    0.77170000    7.53769000   12.52141000      0.327764    0.15565200    0.08390100
Se    3.41696000   11.03895000    0.38387000      0.238527    0.22397800    0.28040200
Se    1.33906000   13.73657000    9.56618000      0.657783   -0.40730800   -0.43437900
Se    1.39285000   17.69773000    2.15039000      0.862579    1.10659400    1.85700600
Se    1.17979000   19.40057000   10.18901000     -0.309642    0.19466000   -0.38304900
Se    7.14980000    2.00214000    1.34528000     -0.943725   -0.65646500    0.14924700
Se    7.24637000    1.60424000   10.54191000     -0.078194    0.06922300   -1.30337300
Se    7.41508000    4.94356000    1.16152000     -0.522822   -1.10920300    0.10514700
Se   10.56752000    7.09335000   12.02806000     -0.000303   -0.01388100   -0.62362100
Se    7.92191000   11.36908000    0.87354000      0.839736    0.20171300    0.07501100
Se    5.64940000   14.10267000   12.93765000      0.219454   -0.37451900   -0.80856400
Se    4.16705000   20.11872000    0.88210000      0.579746    0.86888400   -0.80743400
Se    8.95019000   18.59312000   12.03967000      1.182140   -1.22750100   -0.49778100
Se   14.22027000    3.23220000    0.55050000     -0.786702   -0.85202500    0.13369000
Se   12.94919000    1.11421000   10.12824000     -0.445111   -0.54773100    0.80919500
Se   10.29312000    7.23658000   18.96992000     -0.687121    0.54911500   -0.27348500
Se    9.79711000    9.19826000    8.91223000      0.055082    0.38366000   -0.82406600
Se   11.76756000   12.40491000    0.71956000      0.545285    0.20196800    1.20907300
Se   13.38339000   11.34040000   10.15715000     -0.048903    0.54006900   -0.12074900
Se   15.59077000   15.15751000    1.64501000     -1.655918    0.23125700    0.51129200
Se   11.61301000   17.61629000    9.02402000      0.266566    0.29312500    0.65098600
Se   16.59387000    3.91550000    2.76183000      0.618325    0.08917800    0.08799100
Se   15.95397000    2.95481000   11.12407000     -0.244430    0.68049800    0.13720500
Se   16.67952000    7.60888000   17.90856000     -0.032760   -0.45241200    0.02526600
Se   20.06413000    7.04567000   11.59586000      1.697655   -0.13465800    0.06990200
Se   19.07178000   10.66400000    0.40227000     -0.683407   -0.68173300    0.26530700
Se   16.89795000   15.35584000    7.08153000     -0.671049   -0.14065400    0.15853000
Se   19.72280000   17.01115000    0.85002000     -1.131641    0.48280200   -0.39880200
Se   18.16394000   19.29986000   11.15683000     -1.105845    0.50502200   -0.13728900
Se    3.91081000    4.14189000    1.80013000     -0.444613   -0.34205100    0.70373000
Se    3.88321000    6.54405000   12.26621000     -0.586535   -0.32375000    0.47280700
Se    5.86065000   10.50150000    2.51463000      0.202647    0.72298300   -1.84326200
Se    5.26245000   12.88955000   10.71040000      0.528469   -0.59865000    0.84426500
Se    4.37189000   15.72175000    4.13979000      0.063799   -0.36113600   -0.29698900
Se    3.48504000   16.65303000   11.37139000      1.299351   -0.79439000    0.38704600
Se    3.58085000    0.52040000    1.11478000     -0.320659    0.41102600   -0.42776100
Se    7.25501000   21.33602000   10.04955000     -0.603751   -0.63599500    0.36715100
Se   10.58223000    6.55258000    3.56164000     -0.056753    0.35850100   -0.72733200
Se    7.31924000    3.33115000    8.84155000      0.400350    0.19205500    0.17394500
Se   11.11442000    9.79448000   17.36826000     -0.011922   -1.76311500    0.03156500
Se    7.07984000   10.98677000    9.39614000      0.658103    0.12005700    0.63631500
Se   10.44798000   17.22307000   19.05287000      0.468171    0.27244100    0.88702100
Se   11.42838000   14.16534000   11.43054000      0.522343    0.41867400   -0.79923400
Se   13.67227000   22.51748000    1.07324000      1.134846    1.25614400    0.53447200
Se   11.53868000   21.47965000   11.78012000      0.300976   -0.00392400   -0.35091200
Se   13.40986000    5.14513000    1.62593000     -0.499034    0.73197400   -0.41678800
Se   17.81080000    7.12658000   11.62918000     -1.912025   -0.12230800   -0.44352800
Se   15.78680000    9.91979000    1.08303000     -1.771477   -1.95243400   -0.02599400
Se   15.73667000   10.18750000   12.19567000      0.123472    0.38025100    0.86778300
Se   18.05499000   13.93112000    3.99161000      1.092969    0.18654500   -0.10349600
Se   14.43929000   13.69681000   10.39665000     -0.237108   -0.46814700   -0.81948100
Se   17.57937000   22.37763000    1.84057000     -0.301570    0.16670300   -0.13394900
Se   14.23080000   19.86340000    9.30288000      0.332529    0.23774000    1.29655900
Se   20.90228000    1.19699000    0.82730000     -0.449799   -0.14185900    0.20712300
Se   21.64168000    3.58834000   10.31879000      0.219788   -0.46444900    0.54372000
Se   19.82339000    6.76852000    0.75110000      0.616731   -0.85083500    0.52143100
Se   21.53165000    9.97522000   10.37247000      0.216012    0.22792200    0.48294300
Se   21.42581000   13.29098000    0.39171000     -0.303358    1.35570200    0.73294900
Se   22.91541000   16.10909000   12.45224000     -0.125057    0.46275800   -0.71146600
Se    0.01843000   21.69384000    1.92080000      0.775869    0.10302800   -0.30265900
Se   19.34052000   21.17040000   14.69864000      1.058931   -0.90918100    0.65569000
Se    3.91206000    5.22147000    8.44602000      0.008023    0.65858700   -0.25498300
Se    1.01075000    6.71401000   16.11670000      0.330344   -0.30890900    0.54291300
Se    3.97167000   11.01578000    8.75995000      1.189068   -0.19731400   -0.17748500
Se    3.69545000    9.46138000   18.03255000     -0.046883   -0.33639800   -0.58008900
Se    4.28330000   18.55258000    7.21113000      0.021819   -0.43752100    0.81912900
Se   22.79750000   17.80443000   16.76060000      0.417832   -0.50479000   -0.25448200
Se    3.25807000   21.95946000   12.00569000     -0.025488    0.34230900   -0.31125300
Se    6.91440000   21.90634000   17.20947000      0.076044   -1.18234800   -0.32212900
Se    7.19369000    3.68058000    5.39482000      0.190531    0.29663000    0.08893600
Se    6.03317000    3.94159000   17.40617000     -0.384012    0.43188500   -0.33794800
Se    6.69756000   10.57840000    5.95658000     -0.645497    0.09722000   -0.27614100
Se    4.99461000    7.14623000   15.81287000     -1.199784   -0.04449300    0.16237000
Se    6.30727000   16.60146000    9.58021000      0.118488   -0.60841900   -0.15571700
Se    6.68698000   16.85141000   18.49364000      0.901933    0.23972800    0.53574000
Se    8.53050000   18.82731000    7.83064000     -0.457366   -0.47742900   -0.35840200
Se    7.00409000   22.49447000    0.98956000      0.712276    1.38962200   -0.34625400
Se   13.81606000    3.23331000    9.56731000      0.910579    0.06019600   -0.10050400
Se   12.55049000    5.09444000   17.30375000      0.747668   -0.61008700   -0.44930700
Se   13.24770000    8.26422000   10.51475000     -0.280143   -0.34077700   -0.27435000
Se   13.34577000   11.73386000   16.08816000      0.496847   -0.17538100   -0.68186800
Se   13.50618000   15.12469000    6.79245000     -0.443062   -0.61228800   -0.29889600
Se   13.63774000   15.20906000   16.76555000     -0.008620   -0.06599400    0.44705700
Se   12.54020000   21.81895000    5.38577000      0.943309   -0.25573000    0.22887500
Se   16.88894000   22.08953000   16.97205000      0.251246   -0.30282300    1.75141000
Se   18.36265000    3.20909000    9.25900000      0.014596   -0.06248700   -0.29296600
Se   20.17395000    3.30271000   17.31572000      0.165556    0.72373400    0.52927800
Se   18.11090000    8.58034000    8.21265000      0.291107    0.29914400    0.14695900
Se   16.75002000   10.62467000   16.51614000      0.434548   -0.51511800   -0.86281500
Se   15.40263000   16.45213000   10.48149000     -0.601181   -0.23077200   -0.49622600
Se   18.28891000   15.20563000   15.68879000     -0.478905   -0.12758900    0.16709900
Se   17.84704000   19.07242000    8.78499000      0.262761    0.44339700   -0.02675100
Se   20.04050000   19.64901000    2.19941000     -0.496281   -0.08354500    0.62595500
Se    4.16691000    0.49915000    8.30486000      0.094824   -0.09121900   -1.25345800
Se    0.72701000    4.47197000   16.95253000      0.254302    0.44770600   -0.03583700
Se    7.22339000    7.30918000   10.44185000     -0.339567   -0.00894400    0.64798300
Se    3.61023000    6.35881000   18.46329000     -0.457371    0.60558500    0.63013300
Se    4.10263000   15.36020000    7.13554000     -0.592372    0.04050000   -0.74461800
Se    5.11083000   14.27876000   18.81024000      0.547521   -0.46149100   -0.04562900
Se    2.94613000   20.78544000    9.41066000      0.153158    0.21162900    0.48498900
Se    0.24412000   17.34514000    0.22743000     -1.108938   -1.41703900   -0.36497800
Se    9.69745000   22.46225000    8.25283000      1.092947   -0.39513100   -0.14507800
Se   10.14948000    2.78119000    0.03391000      0.652569    1.19514000   -0.26502100
Se   11.28706000    4.79958000    9.64763000     -0.238745    0.09613400   -0.14344200
Se    6.80883000    8.72821000   18.36105000     -0.150805   -0.34890700    0.46934100
Se   10.56943000   13.94996000    8.08161000      0.357706   -0.59002400    0.33659800
Se    8.78206000   12.55651000   18.18286000     -1.186088    0.37497500   -0.35961300
Se   11.53677000   20.64608000    7.92430000     -0.929457    1.01117900    0.05903200
Se   11.29774000   14.50744000   17.03858000      0.480708   -0.22498300   -0.75406700
Se   16.77947000   22.77606000    8.71608000      0.484648   -0.27509400   -1.44158300
Se   16.07196000    3.05329000   18.38117000      0.300973    0.17307000   -0.22633800
Se   15.76443000    5.63581000    9.20892000     -1.273289    0.28347300    0.20808600
Se   13.87567000    9.32725000   18.61556000     -0.671206    0.23920500    0.85215000
Se   16.56226000   12.61313000    9.72160000      0.377000    0.05661600   -0.49195700
Se   16.82540000   13.39465000   18.57064000     -0.256181    1.87273300    0.14233300
Se   14.87799000   18.06351000    6.43887000      0.456676    0.51473900    0.77857600
Se   17.24492000   18.35033000    0.19795000     -1.460009    0.36070200    0.53434900
Se   21.86875000   22.72035000    9.30584000      0.915256   -0.49687900    0.06858500
Se   22.75844000    0.08263000   15.09143000      0.305862    1.06599800   -0.14976600
Se   20.32694000    6.53450000    7.80217000      0.426056   -0.42956400    0.68391500
Se   21.34228000    7.85706000   18.69797000      0.689293    0.39700100   -0.60878100
Se   22.01221000    9.71021000    6.95622000     -0.152404    0.82058700   -0.18306400
Se   21.64076000   11.08256000   17.92931000     -0.691094   -0.88013000   -0.30135100
Se   20.19308000   16.64182000    7.37832000     -0.735407   -0.52355700   -0.19706200
Se   19.99759000   15.92284000   17.08389000     -0.317027    0.19534800    0.19408200
Se    3.20816000    2.10207000   10.57070000     -0.221929    0.06234700   -1.00082200
Se    2.93745000    1.42009000   15.28379000     -0.286445   -0.57229900    0.00244800
Se    0.35023000    8.09539000    8.01700000      1.183300   -0.00278700   -0.38760400
Se    1.67446000    9.80334000   16.78921000      0.096376    0.01540000    0.23041600
Se    1.02084000   16.20467000    6.44207000     -0.751424    0.82635800    0.53077900
Se    1.84062000   12.83408000   16.83035000      0.357524    0.57887100   -0.14248900
Se    0.13776000   18.57146000    6.52845000      0.649886   -0.96503100    0.46091700
Se    2.21687000   20.58275000   16.32970000     -0.166080    0.62765500   -0.26985100
Se    7.59119000    0.65418000    6.34090000     -0.595179   -0.24475400   -0.43084200
Se   11.74340000    0.66739000   18.21544000     -0.280326   -0.41919700   -0.21629700
Se    7.83550000    7.23310000    6.40626000     -0.345522   -1.62612800    0.89483700
Se    7.11115000    7.06014000   14.81913000      0.616051   -0.30094400   -0.31512900
Se    7.28119000   14.62981000    5.86048000      0.206743   -0.73884400    0.11635600
Se    9.41500000   16.70507000   14.86993000     -0.418690   -0.41857800    0.48931500
Se    4.72417000   19.90627000    5.46110000     -0.002500    0.49402900   -0.87629900
Se    8.63801000   14.38707000   15.24826000     -0.697700    0.45935100   -0.13432300
Se   14.89275000   22.02205000    3.99305000     -0.116388    0.79281700    0.43272800
Se   14.83623000    1.30833000   16.57644000     -0.299076    0.19750200    0.26390800
Se   12.65251000    6.94636000    6.54664000      0.562505    0.39661000    0.75935200
Se   11.32624000    7.10998000   15.55516000     -0.983365    0.30100800    1.08633700
Se   12.66954000   11.76258000    4.97644000      0.535150   -0.13510700   -0.54496000
Se   14.60527000   14.08066000   13.50243000     -0.025317    0.27530800   -0.94862000
Se    9.52866000   16.33786000    5.50524000      0.521665   -0.31674800    0.01826600
Se   13.89519000   20.01000000   18.56318000      0.331512   -1.00246300   -1.41444000
Se   20.03283000    1.45065000    5.23023000      0.633890   -0.61600400   -0.40457800
Se   18.53180000    0.70868000   17.68169000     -0.184918   -0.21739100    0.08132500
Se   17.80617000    4.69502000    6.03667000     -3.301162    0.65138900   -0.88224800
Se   18.30814000    7.28571000   16.12763000     -0.488705   -1.24690400   -0.37383600
Se   20.25460000   10.51969000    4.00210000      0.745605   -0.07509500    0.30286600
Se   16.73837000   13.07821000   12.68202000      0.462051    0.72527500    0.84403100
Se   17.15407000   18.99253000    5.33675000      0.498822    0.23649200    0.16603800
Se   17.60718000   22.28434000   13.80454000     -0.722004    0.83684900   -0.36983400
Se    3.17198000    7.39564000    7.50908000      0.506980   -1.29106200   -0.47076100
Se    3.03107000    4.46844000   13.77043000      0.237285    0.23347400   -0.71901500
Se    2.78237000    9.24413000    4.04697000     -0.045077   -0.47137700    0.18772000
Se    5.22255000   11.90620000   15.31941000      0.180872    0.30265000    1.15788900
Se    5.30863000   13.35194000    6.73164000      0.457964   -0.25743900   -0.33037900
Se    3.82716000   17.74666000   18.04630000     -0.087743    0.40010000   -0.58943800
Se    2.08652000   21.43755000    5.77737000     -0.347520    0.31075600    0.12231000
Se    4.98862000   22.88627000   14.67614000     -0.600173   -0.54465800   -0.71153200
Se   10.62009000    2.11172000    6.44001000      1.132408   -0.20946800   -0.18843200
Se    8.81122000    3.77460000   15.46592000      0.802703   -0.43900700    0.04659500
Se   10.54521000   10.14230000    6.60465000     -0.350333   -0.29440600    1.02162900
Se    8.73015000   10.89943000   14.65914000      0.252735    0.29972100   -0.34226700
Se    8.24516000   14.93283000    9.36907000      0.411998    0.90354600   -0.33283100
Se   12.56900000   18.03802000   16.25189000      0.199647    0.42773600   -0.67867600
Se   10.01151000   20.49134000    3.79753000     -0.008710   -0.35232800    0.10235500
Se    8.75620000   20.94081000   18.45367000     -0.124225    0.31658900   -0.68800800
Se   14.09021000    4.46137000    5.47293000     -0.366092   -0.66363200   -0.42217700
Se   18.51014000    3.16207000   14.90918000     -0.122674    0.28678700    0.21474600
Se   15.08484000   10.00213000    6.50527000      0.260164   -0.23925700    0.26567700
Se   18.25590000    9.69220000   12.66734000     -0.787377    0.64253800    0.01150300
Se   17.42403000   11.82024000    5.80207000      0.234380    0.26407100    0.07475400
Se   16.87396000   19.02209000   16.12592000     -0.648792   -0.90039500    0.18290000
Se   16.28256000    0.78511000    4.95887000     -0.758590   -0.58935500   -0.51744800
Se   18.82824000    3.50993000   12.58708000     -0.060325   -0.39791700   -0.23571300
Se    0.48327000    4.36680000    7.46632000      0.177169   -0.89202600   -0.83274500
Se   22.44096000    3.59233000   14.80990000      0.069686   -0.02091400   -0.44875400
Se   19.85802000   12.53640000    8.88963000      0.366976    0.46653600   -0.53440800
Se   22.15705000   11.62183000   15.74080000      0.291187   -0.27928700   -0.74932200
Se   21.89292000   12.95085000    7.23290000     -0.474823    0.31100000   -0.73740000
Se   20.76164000   17.89156000   14.23395000     -2.980146   -0.14467100    0.70275700
Se   19.53454000   20.74059000    8.14450000     -0.271432   -0.29256400   -0.47164000
Se   21.71296000   20.94328000   17.98822000      0.670781    0.36328200   -0.44649100
Se    3.26249000    2.76244000    5.18394000     -0.222124    0.44336700    0.58595700
Se    6.82427000    1.25698000   17.00910000      0.582568    0.50728800    0.36236600
Se    0.03242000    4.25282000    0.45237000     -0.288625    0.57790300   -0.01999300
Se    3.86493000    9.52268000   11.20519000      0.257427   -0.58788400    0.16954600
Se    0.68185000   12.12242000    2.95709000     -0.219267    0.76047100    0.34553900
Se    3.50265000   15.26697000   14.88527000     -0.059907    0.73838400    1.45999000
Se    4.40963000   16.13030000    1.74677000     -0.554410   -0.19809100   -0.33197100
Se    5.54448000   19.12629000   12.67970000      0.087902   -0.32578100    0.03798600
Se   10.77777000    0.66910000    2.80432000      0.456464    0.56186100    0.23250500
Se   11.41644000    1.98365000   14.05655000      0.945486   -2.42077900    0.29407700
Se   10.02204000    9.02747000    3.08370000     -0.427394   -0.87199200    0.88407700
Se    7.59540000    9.07280000   16.06758000      0.127660    0.10888800    0.62601200
Se    9.70394000   12.34389000    3.99721000     -0.427886   -0.00114300   -0.20459700
Se    9.35330000   12.53311000   11.89842000      0.081483   -0.79285900   -0.65089500
Se    8.80580000   20.18096000    1.70230000      0.208300    0.24341000    0.08720500
Se   11.58379000   19.28300000   14.30375000     -0.004681   -0.12906800    0.56434800
Se   18.55648000    1.35134000    7.05151000     -0.538952   -0.25794800   -0.22494400
Se   15.02818000    1.93344000   13.08451000     -0.221600   -0.00501100    0.67409900
Se   15.92899000    7.28310000    3.94373000     -0.124694   -0.34249300   -0.13007100
Se   14.68308000    4.61532000   15.43353000     -0.621400    1.04118400    0.08756000
Se   15.16411000   12.14469000    2.41193000     -0.756739    0.13148800    1.23579000
Se   17.45265000   17.36032000   13.58831000      1.164833   -0.58080500   -0.59216100
Se   15.40437000   15.76295000    4.07332000     -0.095354    0.50285900   -0.31723000
Se   15.87286000   20.26583000   14.41401000     -0.755731    0.08574900   -0.42752500
Se   22.75534000   22.27873000    5.50592000      0.054873    0.23752100   -0.07406900
Se   20.72940000    0.03291000   12.90429000      0.801007    0.43379400   -0.26183800
Se   21.03285000    4.38419000    4.16863000     -0.222725    0.16482300   -0.27022800
Se   20.23360000    9.01590000   13.92850000      1.173430    0.11975200    0.86135600
Se    1.18415000   12.79681000    5.40051000     -0.229006   -0.00088000    0.17701500
Se   21.64237000   13.96736000   15.99856000      0.044328    0.07657200    0.01847900
Se   21.92019000   18.89534000    4.57084000     -0.107282    0.55998800   -0.26957700
Se   21.21417000   19.23760000   10.05486000      0.592885   -1.18222400    0.44042100
Se    0.17856000    4.98420000    5.10719000      0.543837    0.30198400    0.36388700
Se   21.58101000    5.71611000   14.09474000     -0.017379   -0.50570500   -0.29514200
Se   22.37742000   10.08634000    2.69066000     -0.299961   -0.43043400    0.26138000
Se    1.39468000   10.98671000   12.70599000     -0.079116    0.81131000    0.64402100
Se    1.18813000   14.27538000    1.18704000      0.488512   -0.55891500    0.54929000
Se    1.57624000   20.72589000   12.92773000     -0.314893    0.18720700   -0.10742900
Se    4.54805000    0.02385000    3.27017000     -0.036813   -0.03250400    0.42031700
Se    4.02703000   19.52323000   14.64005000      0.610680   -0.63768100   -0.20462300
Se    9.70167000    6.45887000    8.31868000      0.029856    0.08756500   -0.23847200
Se    6.62133000    4.65929000   13.07442000      0.565890    0.99147100   -0.53567200
Se    5.93095000    6.94849000    3.86373000     -0.788607    0.36786800    0.34590700
Se    7.65000000   10.63268000   12.38095000      0.179152    0.36131300   -0.33322700
Se    7.33019000   17.21888000    3.15739000      0.802765   -0.02265800   -0.71157300
Se   11.57783000   14.29891000   13.78726000      0.738798    0.29759800    0.56125500
Se    7.54838000   21.28318000    6.68958000     -0.667918    0.26307400   -0.21317900
Se    8.05594000   22.15635000   14.02694000     -0.537996   -0.23515300   -0.13471800
Se   12.73138000    2.28900000    3.34708000     -0.679069   -0.24722000    0.10544300
Se   10.18930000    2.70423000   12.27231000     -0.875864    0.39089000   -0.81421600
Se   13.78485000   10.07755000    3.37248000     -0.043608    1.51472400   -0.23363900
Se   12.52448000    9.59676000   13.07162000     -0.583668    0.70551700    0.21579800
Se   11.99688000   15.16265000    2.76785000     -0.115082   -0.05126800    0.47564500
Se   14.73915000   18.35207000   12.44702000     -0.267969    0.42066000   -0.72354400
Se   13.78079000   18.84199000    2.58369000      0.148285   -0.41319400   -0.49849300
Se   13.37808000   22.20370000   15.37143000      0.909144    0.02371500    0.23990000
Se   16.99637000    5.31457000    0.85477000      0.123904    0.22932500   -0.05931000
Se   16.26532000    6.32767000   13.52296000     -0.086266   -0.23085500    0.20863400
Se   17.64234000    8.97362000    3.84751000      0.304198   -0.75252600    0.14977800
Se   20.24373000   12.92649000   12.64234000     -0.318123   -0.42990600    1.45917600
Se   21.94267000   15.85746000    3.75278000      0.061325   -0.59549700    0.75337000
Se   19.12904000   15.80797000   11.04307000      0.428901    0.38812900   -1.27060600
Se   19.82713000   21.98499000    3.74826000      0.054283    0.03005300   -0.17260900
Se   15.94815000    0.02327000   10.74912000     -0.301872    0.73995800    1.16281500
