384
23.00800000 23.00800000 19.32000000
Ge    4.85963000    5.25476000   11.52638000      0.740887   -0.58832200   -0.76519100
Ge    5.60108000    5.22675000    1.98371000     -1.341260    0.91691300    0.69462400
Ge    1.03825000   12.32190000    7.71228000      0.008982   -0.23127600    0.23001700
Ge    7.05309000   11.95986000   17.46851000      0.331786   -1.58594200   -0.34655300
Ge    4.78014000   14.83722000   10.09444000     -0.852462    0.93868300   -1.25486200
Ge    8.05505000   18.98710000    0.78438000     -0.358988   -0.34958900   -0.48751100
Ge    9.20989000   20.86170000    9.39296000     -0.110769   -0.85604500    0.14669900
Ge    4.67560000    1.37839000    0.43412000     -1.153693    0.54863300    0.61039700
Ge    9.15939000    5.29989000   11.25013000     -0.434880    0.17420400    0.17025900
Ge   12.03810000    4.88586000    0.63742000     -2.041917    0.16535000    0.17629700
Ge   10.83146000   10.82936000    9.70086000      0.273847   -0.95678600   -0.60365200
Ge   10.70574000   12.81610000   17.29218000     -0.081335    0.24457500    1.18542600
Ge   10.22306000   17.00684000    8.44865000     -0.687482    0.12866100    0.15642800
Ge   13.05003000   15.02504000    0.34967000     -0.589346   -0.81185000   -0.82107800
Ge   10.44734000    1.30575000   10.40908000      0.086240   -0.31603300    0.07050900
Ge   14.98538000   21.87793000    0.39901000     -0.093544   -0.49899100   -0.84799600
Ge   19.00381000    5.83590000    9.96619000     -0.087153   -0.11853800    0.62314200
Ge   18.75457000    8.90448000   16.28711000      0.212778   -0.65004600    0.32390400
Ge   21.62641000   14.48297000   10.60107000      0.080706   -0.55439000    0.43488600
Ge   15.92029000   11.07982000   18.51929000     -0.583379   -0.87341500    0.39652500
Ge   14.08666000   17.09176000    9.09354000     -0.236350   -0.37546200   -0.91388200
Ge   17.95030000   16.10840000    1.05589000      0.357715   -0.42863800   -0.13694700
Ge   18.17727000    0.99553000    9.08018000      0.859602    0.40437600    0.96837100
Ge   18.18101000    1.94581000   18.75245000     -0.154744    1.02508800    1.01661400
Ge   22.98857000    5.52198000    9.25005000      0.332999   -0.20029900    0.66173500
Ge   19.92787000    4.53702000    1.61664000      0.380440    0.00297700   -0.60728400
Ge    0.20751000    9.80899000    9.09296000      0.178117   -0.08320600   -0.05160200
Ge    0.53737000   12.14329000   18.51839000     -0.180196   -0.59358900    0.06703400
Ge   21.85594000   15.72035000    8.24701000     -0.577765   -0.81305900    0.80797000
Ge    2.51494000   16.14767000   17.46993000     -0.685385    2.12952700    0.32969800
Ge   20.70899000   22.24489000   10.03034000     -0.388230   -0.29792000   -0.27106900
Ge    1.27855000   21.66808000    0.17609000     -0.135439    0.13607500    0.98013100
Ge    5.23510000    9.28801000    8.93933000      0.510706    0.41170300   -0.11468100
Ge    1.00960000    6.68727000   19.02373000     -0.683442   -0.92019100   -0.51804900
Ge    1.01594000    8.49787000    5.00323000      0.460560    0.18904100    0.94556300
Ge    4.50484000   13.41959000   16.93965000     -0.415969    0.45796400   -0.55845300
Ge    4.33856000   18.36683000    3.26769000      1.087903   -0.11988500   -0.30933000
Ge    1.61598000   18.96083000   18.57581000      0.388031   -0.53163500    0.47209600
Ge    5.10709000   18.88683000   10.01903000     -0.359760   -0.00921000    0.14373200
Ge    4.23743000    0.78633000   16.63729000     -0.419358   -0.51681100    0.36513800
Ge    9.24342000    3.86578000    7.34429000     -0.133764   -0.50877600    0.24239300
Ge    7.32602000    6.19898000   17.10020000      0.477730   -0.07006800   -0.34269900
Ge    6.82949000   12.81288000    4.48148000     -1.249201    0.17500700    0.32479800
Ge    8.53235000    8.22446000    0.91200000      0.432232   -1.62633200    0.32370100
Ge    6.35358000   16.79852000    6.94946000     -0.512531    0.54527000   -0.05894600
Ge    9.38732000   16.02596000   16.81322000     -0.803205    0.73038000   -0.09085800
Ge   10.91091000   22.42278000    5.45276000     -1.269346    0.27285700   -0.79159000
Ge   10.81812000   21.55402000   14.52979000     -0.985962    0.41290400   -0.71815500
Ge   12.25375000    6.33705000    8.13227000      0.341274   -0.16666400    0.78767400
Ge   13.73991000    5.96629000   16.30573000     -0.799580    2.14227700   -0.08513400
Ge   14.04845000    9.61461000    7.22070000      0.160555    0.17525500    0.92006500
Ge   15.72692000   12.76580000   15.59543000      0.021582   -0.33844500    1.00566100
Ge   12.70950000   16.72214000    5.32565000     -0.371240    0.59509300    0.33914100
Ge   14.00641000   18.24814000   19.06759000      0.009459   -0.09828000    0.20454200
Ge   13.73646000   22.53095000    8.53668000      0.396789   -1.33276500   -0.03556700
Ge   15.67925000    1.51696000   14.24114000     -0.487545   -0.87421500   -0.13854200
Ge   20.53394000    3.67893000    6.22366000     -0.760371   -0.17389400    0.51774600
Ge   20.51484000    5.42157000   16.69212000      0.252942    0.32432900    0.02087600
Ge   17.60724000   11.39986000    7.17303000      0.333521   -0.42373200    0.44406500
Ge   20.44886000   13.33104000   18.02415000     -1.197580    1.19704500   -1.62778100
Ge   18.43513000   16.04057000    5.97832000      0.492652    0.22092900    0.16612300
Ge   18.64967000   20.24144000   17.73346000     -0.869969   -0.49888200   -1.19239800
Ge   21.79652000    1.43417000    7.34262000     -0.966453   -0.11052700    0.23621200
Ge   18.76060000   21.29563000    0.53621000      0.688781    0.50068300    1.48731000
Ge    5.68383000    3.18359000    7.46864000     -0.326339    0.15567400    1.42150800
Ge    5.25214000    4.01450000   15.30992000     -0.631946    0.97881200   -0.11705900
Ge    2.68427000    6.64866000    3.93026000      0.493320    0.59756800   -0.09865600
Ge    3.05863000    9.87026000   13.80723000     -0.027241    0.25428300    0.08715500
Ge    1.37385000   16.12587000    3.95626000     -0.727008   -0.93183400   -0.40582000
Ge    1.13223000   18.65612000   13.79450000      0.346479   -0.45608800    0.55419100
Ge    2.17175000    1.22074000    8.78569000      0.442632   -0.09527300   -1.11730700
Ge    6.02501000   18.87603000   15.74076000     -0.652617   -0.04408600    0.19376000
Ge    8.80772000    3.60888000    3.33277000      0.198046   -0.60390900   -0.51770800
Ge    9.47043000    1.42872000   15.78103000      0.266943    0.70040700   -0.48750800
Ge    8.68612000    9.37833000    5.08870000      0.958877    0.45843900   -0.39407600
Ge   10.31506000   10.45422000   14.85402000     -0.740813   -1.61007600   -0.02565600
Ge    9.99433000   14.20876000    5.32710000      1.056832    0.76049800   -0.49269900
Ge   12.83191000   11.89747000   13.92634000      0.265947    0.83210700    0.42968100
Ge    6.55872000   21.62360000    2.83487000     -0.183301   -0.20809200   -0.09505200
Ge    8.91029000   18.72576000   15.15114000     -0.292866   -0.03625000    0.87864400
Ge   13.76505000    1.47461000    6.45330000      0.303488    0.18885500   -0.14231100
Ge   11.79149000    3.83374000   15.14513000     -1.420852    0.16719300   -1.33980600
Ge   15.47374000    6.61443000    6.07055000     -0.315448   -0.08268400    0.40212300
Ge   14.72184000    8.97851000   14.68281000     -0.475616    0.41708800    0.26264700
Ge   14.92739000   14.15871000    4.87463000     -0.264370   -0.22192500   -0.18792000
Ge   14.21066000   16.44491000   14.39613000      0.070415    0.06898700    0.72005400
Ge   11.89335000   18.72673000    2.84542000     -0.992047   -0.56733300    0.58939700
Ge   10.20370000   21.52612000   16.98471000      0.923372   -0.00492000    0.76745600
Ge   18.38675000    4.24773000    3.82832000     -0.600613    0.27146200    0.11412900
Ge   20.79468000    2.51743000   12.57405000      0.067086    0.52414900    0.60488900
Ge   20.21692000    7.88389000    6.36498000     -0.799906   -1.76824200   -1.23274600
Ge   18.55676000   11.58562000   13.57602000      1.241473   -0.73327500    1.37332500
Ge   21.75458000   14.70552000    1.53767000     -0.745567    0.26320900   -1.19540200
Ge   20.07936000   14.75617000   14.10090000      0.130227    0.16967500   -0.59281800
Ge   19.33480000   19.87168000    5.93062000      0.691212    0.54436300    0.14368400
Ge   22.39271000   21.08479000   16.17194000      0.165065    0.56537100   -0.02101700
Ge    5.17094000    2.54643000    4.19443000      0.510286   -0.14745100    0.30214100
Ge    5.32735000    1.87200000   13.91491000      0.829173   -0.54214300   -0.88227400
Ge    6.06771000    9.43128000    4.30065000     -0.817367   -0.91770400   -0.81475700
Ge    6.76611000    8.19805000   12.12444000      0.163179   -0.34484800   -0.41279000
Ge    7.24109000   15.18468000    3.17759000     -0.952275    0.64964400   -0.82062500
Ge    3.76582000   13.32005000   13.00245000     -0.250696   -0.14114700    0.63134800
Ge    5.58760000   22.90785000    6.72773000      0.089767    1.16221800   -0.53575200
Ge    7.51831000   19.23320000   12.06034000      0.508062   -0.57380200    0.73332500
Ge   12.64358000    3.65312000    4.53023000      0.183327    0.32675600    0.36842200
Ge    8.07168000    1.67131000   12.78021000     -0.125675   -0.24388000    0.15542700
Ge   11.72444000    9.00078000    0.41764000      0.024972   -0.16575500   -0.21809400
Ge   11.69758000    6.45619000   12.91225000     -0.026385    0.13648600   -0.80724600
Ge    9.76589000   14.13042000    1.59746000      0.361701    0.39003300    0.05575500
Ge    8.68801000   14.21293000   11.70983000     -0.589638    1.65619300    0.63839600
Ge   11.59919000   20.49896000   19.09825000      0.327114    0.32015400   -0.50769000
Ge   12.35789000   20.07563000   11.03630000     -1.335211   -0.17127600    0.05431600
Ge   21.48830000    0.45073000   18.11444000      0.562585    0.92173600   -0.05149800
Ge   13.89243000    5.76921000   11.38294000      0.348531    0.07937100   -0.33457300
Ge   16.91205000    8.14327000    0.80650000     -0.045467   -0.30146700    0.56816000
Ge   14.39771000    9.62133000   10.16464000      0.166163   -0.88114100   -0.31491600
Ge   17.21526000   11.83163000    2.61728000     -0.838353    0.08218100    0.28240400
Ge   18.25545000   15.15401000    9.17751000     -0.159874    0.36318200   -0.23739500
Ge   16.84581000   18.13367000    2.38771000     -0.088144    0.07995200   -0.80176300
Ge   16.63890000   21.07233000   12.00393000      0.298282   -0.00563100    0.05733100
Ge    0.21515000    2.26242000    1.91280000     -0.034492   -0.73685100   -0.35871700
Ge    0.17921000    0.30129000   11.25691000     -0.126149    0.41190400   -0.21546100
Ge   22.03122000    7.74372000    3.00791000     -0.093844    0.16267600   -0.80668800
Ge   22.41736000    9.66880000   12.31616000      0.240417    0.24364200    0.28663000
Ge    0.11899000   12.56653000    3.68050000      0.285914    0.48850900    0.63550100
Ge    1.20554000   15.79905000   10.42278000     -0.363098   -0.09657300   -0.47674800
Ge    0.81854000   20.71850000    4.46898000     -1.464358    0.73293500   -0.47812700
Ge   20.78552000   17.99737000   12.24035000      0.308647   -0.15381800   -1.53065500
Se    1.27421000    1.10057000   18.95866000     -0.460095    0.39420200    0.11815200
Se    1.54032000    3.49845000   11.92039000      0.272834   -0.04830300   -0.35996900
Se    0.94006000    8.28225000    1.48262000     -0.057683    0.02000900    1.29937400
Se    0.75463000    8.23335000   11.01716000      0.738338   -1.12964800   -0.51448900
Se    2.67332000   11.99543000    0.67761000      0.612352   -0.90872300    0.53443300
Se    0.94194000   13.11984000   10.20640000     -0.507129    1.04684100   -0.39890600
Se    1.68614000   18.53607000    4.33421000      0.895992   -0.23030700   -0.10927500
Se    2.04377000   18.30969000    9.34952000      0.437294   -0.16480100    1.06238300
Se    6.84337000    1.51547000    2.75695000      0.433170    0.64040300    0.38351600
Se    7.56584000    0.73992000   10.43994000      0.295802    1.00093200    0.13920200
Se    7.78183000    4.63423000    1.20422000      0.315960   -0.06923700   -0.36569500
Se    9.46705000    7.61968000   12.51592000      0.223922   -0.64512700   -0.34007400
Se    7.97514000   10.56279000    0.73921000     -0.135460    1.58262300   -0.14747400
Se    6.43926000   13.64623000   12.57538000     -0.368709    0.17323400    0.42122300
Se    5.46270000   19.83656000    1.19936000     -0.077121   -0.02129400    0.36558200
Se    9.54330000   18.43147000   11.11774000     -0.349589    0.61436200    0.55028100
Se   14.16678000    2.03118000    0.65383000     -0.246486   -0.47369300   -0.87123000
Se   13.36485000    1.12282000   10.28040000     -1.119440   -0.58689700    1.80176100
Se   10.61187000    6.77465000   18.97508000     -0.097223    0.31248100   -0.18273500
Se    8.88151000    9.02627000    8.71405000      0.371381    1.21562300   -0.13187200
Se   11.61836000   12.78159000    0.62524000     -0.093126    0.12547300   -0.00977700
Se   13.69521000   11.98996000   10.39705000     -1.849576    0.58304800    0.81526800
Se   14.53203000   16.36546000    1.95341000      0.398161    0.28431500    0.50736600
Se   11.96675000   17.33038000   10.32897000      0.871001    0.02206300    0.20574000
Se   16.79115000    3.12233000    2.14431000      0.601957    0.47770500    0.30339900
Se   15.79177000    3.35787000   11.40039000      0.027726    0.48608200    0.08749200
Se   16.41304000    6.93560000   17.74667000     -0.702206   -0.00740500    0.11151700
Se   19.71096000    5.95756000   12.69346000      0.369911   -0.07275300    0.03252100
Se   18.09165000   10.04335000   19.15367000      1.362991    0.19001800   -0.07993300
Se   16.47652000   15.24524000    7.27241000     -0.268589    0.32187600    0.57655500
Se   20.40274000   16.45049000    0.43064000      0.252546   -0.03468800    0.27626500
Se   18.96447000   20.19476000   10.75495000     -0.421038   -0.09217800    0.33809700
Se    3.58467000    4.13515000    3.53469000     -0.283598    0.32480200   -1.48703100
Se    3.86701000    7.34365000   12.32379000     -1.115491   -0.44082900    0.28721200
Se    5.94713000    9.72390000    1.78995000      0.145921    0.28265900    0.10967300
Se    5.19773000   12.58476000   10.76259000     -0.385334   -1.02063100   -0.09935100
Se    4.89961000   15.86615000    3.94826000     -0.369638   -0.08708200   -0.39689200
Se    3.24334000   15.66826000   11.78989000      0.457063    0.23573600    0.70052300
Se    2.86384000    0.28200000    2.19006000      0.444756    0.48868900   -0.11046200
Se    6.44532000   20.80591000   10.81674000     -0.554701    1.10769800   -1.40220300
Se   11.76280000    5.59100000    3.52913000     -0.257736    0.46647800   -0.69087400
Se    7.12524000    3.02707000    9.80276000     -0.104192    0.33061200   -0.06656500
Se   10.12071000   10.37446000   17.77176000      0.036890   -0.27185500   -0.07002500
Se    7.16157000   11.35643000    9.60054000      0.217597   -1.71022900   -0.63855100
Se   10.65153000   18.24501000    0.62521000      0.722701   -0.09205900    0.12916200
Se   11.49122000   14.31844000   11.23786000      0.298900    0.59275700    0.88731900
Se   12.72654000   22.82124000   19.09782000      0.169569    0.50315500    0.19146400
Se   10.51992000   22.21371000   11.87594000     -0.284373   -0.10726100   -0.20560700
Se   14.10458000    4.17969000    1.65196000      1.250497    0.77681200    0.48482100
Se   16.66160000    7.46580000    9.58197000     -0.313692   -0.16962800   -0.17993400
Se   14.78868000    9.41276000    1.07238000      0.100260    0.31850500   -0.11322200
Se   15.61071000   10.61775000   12.60907000     -0.098314   -0.19559100    0.49415700
Se   18.18676000   14.13548000    2.70561000      0.624030    0.41169400    0.08345700
Se   14.66705000   12.27913000    8.33062000      0.616707    0.71177900   -0.09236800
Se   17.02274000   22.59391000    1.55641000      0.175009    0.36038700    0.24079400
Se   14.55430000   20.77992000   10.37057000      0.751321    0.36905200   -0.55372200
Se   20.56928000    0.83943000    1.41974000      0.676448   -0.12997000   -0.34968300
Se   21.57259000    3.10166000   10.35776000      0.648590   -0.31829600   -0.19178300
Se   20.05626000    7.10802000    1.16075000      0.076884   -0.04868900   -0.00265800
Se   21.03917000   10.00739000   10.42787000     -0.890897    0.51170400   -0.25684600
Se   20.98074000   12.32648000    0.72379000     -0.158718    0.62299100    1.20682700
Se   22.59019000   16.07161000   12.59723000      0.631281    0.10562100   -0.74779300
Se   22.48945000   22.04371000    2.34101000      0.236798    0.11584200    0.08079000
Se   20.15476000   20.26108000   15.53928000     -0.194271   -0.02033700   -0.31043500
Se    4.19890000    5.35769000    8.53625000      0.258748   -0.23312100   -0.39734700
Se    1.11782000    5.32284000   16.41954000      0.458169   -0.66443300   -0.08853200
Se    3.53518000   11.71334000    8.31303000      0.963586   -0.04124500    0.05793000
Se    3.26592000    9.71784000   19.03536000      0.482420    0.36109700    0.23200400
Se    4.52137000   19.01530000    7.53618000     -0.063268    0.11999000   -0.64402800
Se    0.49618000   17.85951000   16.64679000      0.257675   -1.07794400   -0.21492700
Se    2.48525000   21.76495000   11.77365000      0.154940   -0.26078700    0.11100400
Se    4.38219000   21.18759000   17.03708000      0.518535    0.44774500    0.20242500
Se    6.66353000    4.01209000    5.47700000      0.842985    0.88765100   -0.36682600
Se    6.09502000    3.10208000   17.43049000      0.733002    0.04712200    0.26170200
Se    6.60789000   10.57175000    6.37475000      0.112424    0.77345200    0.72268700
Se    4.78326000    6.10042000   17.54125000     -0.299472    0.71208100    0.26506200
Se    6.49671000   16.37515000    9.52434000      1.343765    0.54554200    0.66165600
Se    7.47918000   17.01006000   18.53898000      0.299093    0.30148100   -0.02835700
Se    8.57959000   18.82782000    7.80742000     -0.060945   -0.23913000    0.35172200
Se    6.13036000   22.58903000    0.42521000      0.968726   -1.30986400   -0.51015100
Se   13.35505000    2.65917000    8.63621000     -0.117174    1.83477000   -0.56592800
Se   12.59350000    4.25329000   17.30784000      0.592739   -1.25860100    2.00465600
Se   12.26604000    7.92460000   10.15569000     -0.119070    0.26020500   -0.35198600
Se   13.48123000   11.24196000   16.22439000      0.352869    0.11512800   -0.52572800
Se   13.10131000   15.09000000    7.47035000      0.113711   -0.10794100   -0.15654500
Se   14.63594000   13.81501000   17.86170000     -0.193202    0.79601500    0.44461000
Se   13.09019000   21.46212000    5.88368000      1.083217   -0.36253700   -0.56776400
Se   16.71865000   21.89031000   17.27304000     -0.071571   -0.46645400    0.02590000
Se   18.11314000    3.60775000    9.53544000     -0.304624   -0.01048000    0.02083000
Se   19.92433000    3.07371000   17.05797000      0.240753   -0.26946300    0.46298600
Se   19.36580000    9.57860000    7.74232000     -0.708358    1.14750100    1.10263300
Se   16.59757000   10.03021000   16.14847000     -0.084026   -0.15384800   -0.77109100
Se   15.87267000   16.22561000   10.59308000     -0.658235    0.79282700    0.08104400
Se   18.25352000   14.90428000   17.50691000      0.480912   -0.58925900   -0.03432100
Se   17.19013000   20.31809000    9.03522000      0.295241   -0.01298100   -0.02682200
Se   19.59127000   19.80529000    2.37154000     -0.724271    0.16371700    0.08204900
Se    4.89558000    0.49638000    8.98143000     -0.625734   -0.56573100   -0.17401100
Se    2.97909000    3.69095000   16.58249000     -0.630271    0.65336800    0.10590700
Se    7.00652000    6.93838000    9.70331000     -0.051019    0.91041700    0.86397100
Se    3.91128000    6.45518000    0.50467000      0.407040   -0.38799200   -0.03783100
Se    3.83000000   15.49540000    7.85934000      0.208973   -0.87920500   -0.06289600
Se    5.57020000   13.07458000   19.04943000     -0.577415    0.38814700   -0.07413300
Se    3.13662000   20.67023000    9.72814000      0.058322   -0.19755700   -0.56736400
Se    1.28766000   16.56209000    0.71616000     -0.091985   -0.15865800    0.23917700
Se    9.26664000   22.61058000    7.57534000      0.209471    0.60261500   -0.83783000
Se   10.12360000    3.12871000    0.64460000      0.255501    0.82125800    0.26016700
Se   10.77244000    4.27425000    9.41995000     -0.204769   -0.10568900   -0.13432300
Se    6.37476000    8.82784000   18.16071000      0.066806   -0.41748100   -0.78444300
Se   11.07791000   13.69524000    7.50597000      0.373064   -0.32627600    0.50976700
Se    8.40885000   13.94897000   17.86522000      1.252171    0.07278400    0.02380100
Se   11.52457000   20.36284000    8.55572000      0.546043    0.57368000    0.42761900
Se   11.73448000   15.13376000   17.23274000      0.731282    0.36360000    0.14717900
Se   16.15620000    1.01678000    7.98732000     -0.900891   -0.17114300   -0.47132300
Se   15.54225000    2.39779000   17.76521000      1.564946    1.80618200    1.43471200
Se   15.00026000    5.81650000    8.70741000      0.127378   -0.23398500    0.02685700
Se   13.75550000    7.83427000   17.84170000      0.858974   -0.39284400   -0.08268900
Se   16.59816000   11.22952000    9.60857000      0.856992    0.29367500   -0.73530300
Se   16.52161000   13.44798000    0.01228000      0.106247    0.51847100   -0.32901700
Se   13.68217000   18.64222000    7.23222000      0.401781   -0.35339000    0.11065600
Se   16.41703000   18.85953000   18.96143000      0.624088   -0.08524000    0.88303400
Se   22.98968000   22.34630000    8.30590000     -0.291368   -0.55675000    1.03296100
Se   22.28713000    0.63350000   15.42240000      0.063690   -0.78944000    0.93690300
Se   20.77990000    5.65492000    8.18007000     -0.406362    0.53872200   -0.49521300
Se   21.26286000    7.35064000   18.36100000      0.218532   -0.32713300    0.18326800
Se   22.05606000    9.40476000    6.40688000      1.433946    0.91975400    0.39604900
Se   20.33036000   11.08036000   16.94087000      0.550195    0.20247400   -0.28142400
Se   19.82254000   17.08730000    8.27225000     -0.734826   -0.51205500   -0.45845000
Se   19.64672000   16.32070000   16.11878000     -0.169216    0.04380100    0.30659500
Se    3.31603000    2.72142000   10.19463000      0.256573    1.11667300    1.80944400
Se    3.31077000    0.34537000   14.12393000     -0.381361    0.40192000    0.60810300
Se    1.67112000    8.08308000    7.49328000     -0.274930   -0.26926100   -0.50186200
Se    1.41316000    9.71789000   17.69433000     -0.427806   -0.06273600   -0.63900600
Se    0.40153000   16.82302000    6.88255000      0.993142   -1.01752300   -1.07788800
Se    2.14609000   13.77856000   17.38237000     -0.414781   -1.17178400   -0.33222100
Se    0.36089000   18.93730000    7.76347000     -0.540148    1.08828800   -0.18855400
Se    2.11615000   20.60653000   16.75877000      0.191185    0.63491400   -0.60991800
Se    7.86617000    0.80219000    5.43815000     -0.302486   -0.92477600    0.73989600
Se   10.19141000    0.74846000   17.99100000      0.174340    0.06943500    0.38028000
Se    7.96611000    7.44591000    6.37605000      0.291450   -1.08410200    0.18422700
Se    6.16955000    6.42702000   14.77230000     -0.122300   -0.56442100    1.08527200
Se    7.69980000   14.53239000    6.26843000     -0.968131   -0.79311800   -0.09735500
Se    8.72811000   16.01666000   13.39741000      0.081028    0.10344200    0.59125500
Se    7.21174000   18.85912000    4.42709000     -0.676407   -0.39486700   -0.26779900
Se    6.75168000   16.27349000   15.24808000      0.226819   -0.25394500   -0.31040700
Se   15.16184000   21.95566000    4.08659000     -0.969088   -0.11573100    0.22888000
Se   14.42183000    0.97607000   16.51208000     -1.159464   -1.50457800   -1.51352900
Se   13.08546000    7.63331000    6.22539000     -0.178208    0.18099800   -1.48412300
Se   11.53122000    6.84739000   15.18147000      0.078142   -0.27671100    1.38063900
Se   13.45195000   11.67199000    5.89095000     -0.192663   -0.10395000   -0.70915900
Se   14.70034000   14.00732000   13.78065000     -0.907017   -0.19783600   -1.07002600
Se    9.85852000   16.71076000    6.05970000      0.863725    0.27125500   -0.37565100
Se   13.30956000   19.94172000   17.14910000     -0.277866   -0.44885400    0.33606200
Se   19.43698000    1.80164000    3.99289000      1.081821   -0.06722500   -0.27177700
Se   19.11792000    0.34151000   17.27766000      0.382755   -0.93502600   -0.78429100
Se   18.01704000    4.04302000    6.33518000      0.369062    0.33918500   -0.38506500
Se   18.17996000    6.01379000   16.20901000      0.454429    0.67473400   -0.33244700
Se   20.32483000   10.10188000    4.37271000     -1.096444    0.52653100    1.66456900
Se   17.76158000   13.78738000   13.42218000     -0.253043    0.89604500   -0.31576300
Se   17.57936000   18.41339000    5.49069000     -0.563779   -0.74388300    0.25916000
Se   17.49648000   22.46636000   14.69929000     -0.320416    0.59243400    0.01913000
Se    4.26474000    7.05725000    6.82508000     -0.785923    0.18858400    0.63000400
Se    3.01223000    4.87330000   13.23827000     -0.038448   -0.59844100    0.35420200
Se    3.53170000    9.43341000    4.54479000     -0.739889   -0.04320100   -0.17064000
Se    5.12098000   11.79692000   15.30404000     -0.197096    0.01484700    0.20818800
Se    5.30927000   13.20137000    7.24233000     -0.745010    0.04256200    0.26342500
Se    3.98972000   17.96246000   18.29653000      0.150358   -0.12039600   -0.21287000
Se    1.58370000   22.60152000    6.27425000     -0.256266   -0.25681100   -0.26857000
Se    5.39703000   22.18803000   13.92065000      0.036595   -0.28717300   -0.39625500
Se   10.69311000    2.57154000    5.62918000      0.315363    0.05880200    0.78296900
Se    9.39762000    3.93039000   16.01773000      0.339229   -0.64675300   -0.35003700
Se   10.47440000   10.17477000    6.90914000     -0.729676   -0.33066400    0.65206200
Se   10.54539000   12.84192000   14.78388000     -0.064023    0.67175100   -0.47205400
Se    8.80394000   14.79884000    9.43298000      0.353705    0.41980700   -1.26713000
Se   11.38100000   18.46750000   16.50739000      0.404770    0.05471900   -0.42320500
Se    9.81064000   20.37619000    4.06366000      0.743589    0.51152700   -0.75256400
Se    8.13310000   20.66994000   17.24536000     -1.225460   -0.85556000    0.17610100
Se   14.75343000    3.87932000    6.07820000     -1.146040   -0.02174800   -0.82727300
Se   17.16607000    3.00933000   15.27679000      0.602091    0.78862600   -0.04545700
Se   16.28749000    9.02256000    6.45674000      0.154487    0.24718500   -0.05619000
Se   17.83277000   10.02283000   11.91387000     -0.085943   -0.44254400   -0.75186900
Se   17.23540000   13.11674000    4.98914000      0.570484   -0.29800600   -0.33495700
Se   16.42141000   18.27905000   15.87459000     -0.468108   -1.12310100    0.31945400
Se   15.85848000    1.23068000    4.08411000     -0.954604   -0.14713600    0.09388100
Se   18.23366000    3.98540000   13.12311000      0.052191   -0.29282300   -0.46531900
Se    0.31550000    3.44047000    7.63205000      0.674081    0.04133800    0.23573600
Se   22.38753000    3.26500000   14.54237000     -0.241903    0.45011800   -0.66113500
Se   19.50263000   13.14527000    8.23011000      0.600659   -0.13949600    0.12575200
Se   22.20239000   11.77548000   15.45488000     -0.632072   -0.05641200    0.10961900
Se   21.76668000   13.52344000    6.97218000     -0.789147    0.48819800    0.04794800
Se   21.62383000   18.50829000   14.39191000     -0.311254   -0.00147900    0.69192200
Se   18.58765000   21.56118000    7.61337000      0.247810   -0.32631500   -0.72084900
Se   21.92050000   21.07092000   18.74796000     -0.207191   -0.36186500   -0.82503500
Se    3.44461000    3.04831000    6.55023000     -0.263334   -0.70799900    0.34492800
Se    6.87427000    1.08888000   16.11951000     -1.503267    0.33839700    0.23686400
Se   22.54589000    4.49407000    1.09460000      0.132360    0.31346000   -0.25585800
Se    4.25051000    9.55094000   11.53294000      1.057375    0.86814100   -0.63463600
Se    2.56716000   12.17198000    3.29131000      0.153826   -0.33267400   -0.18263800
Se    4.04480000   15.60625000   15.61640000      0.931473   -0.45204400   -0.41078600
Se    5.03165000   15.91521000    1.43708000      0.449189    0.42572700    1.26388200
Se    5.69859000   17.61424000   12.44435000     -0.497392    0.22366300    0.78053000
Se   10.32062000    0.88870000    2.95277000      0.319412   -0.09691700    0.37769600
Se   11.71779000    1.37799000   14.28700000      0.490912   -0.14351800   -0.17388600
Se   10.49053000    8.51763000    2.57866000     -0.250755    0.26467100    0.28055600
Se    7.89378000    8.65624000   16.34869000     -0.207635    0.17145100    0.27446900
Se    9.07115000   12.64522000    3.56447000      1.156347   -1.31796800    0.03657000
Se    9.92603000   12.25108000   11.65134000      1.082279   -0.95847900    0.42683600
Se    9.11785000   21.67108000    2.02792000     -0.066808   -0.92541900    0.76567600
Se   10.96629000   19.24909000   13.78872000      0.687979   -1.16057600    0.03975200
Se   17.88334000    0.55332000    5.13613000      0.225989    0.25067800    0.71213600
Se   13.95026000    2.87058000   12.86486000      0.799230   -0.13675400    0.53189500
Se   16.44235000    6.23488000    3.63705000     -0.139661   -0.23682700    0.03653100
Se   15.12160000    6.25593000   14.45014000      0.859237   -0.40891400   -0.57296000
Se   14.73202000   12.95183000    2.37798000      0.321415   -1.24008400    1.17848400
Se   16.78640000   15.97766000   14.99811000     -0.288074    0.96642900    0.39880500
Se   15.29461000   16.81457000    4.38738000     -0.196227   -0.52042000   -0.39036900
Se   17.14922000   19.91773000   14.43861000      0.128633    0.32213500   -1.02100800
Se   22.75920000    0.67038000    5.16196000      0.030379    0.25282400   -0.16719200
Se   20.83695000   22.99345000   12.45936000      0.436134   -0.05034200    0.25018400
Se   21.67163000    5.26761000    4.65480000      0.178275   -0.12898300    0.10609300
Se   21.77988000    8.87801000   14.44866000      0.009312   -0.20304500    0.08513200
Se    1.73206000   13.87980000    5.66858000     -0.593622   -0.39022100   -0.32723200
Se   21.87917000   14.40669000   16.25745000     -0.128214   -0.37236300    0.15594600
Se   21.54880000   19.11974000    5.45075000      0.312067    0.67165100   -0.22385500
Se   21.57619000   19.68446000   10.19402000     -0.682988   -0.13522400    0.72499900
Se    0.76700000    4.18999000    5.32939000      0.126429    0.33553800   -0.19206000
Se   21.99084000    6.02868000   14.23026000     -0.490385   -0.51209300    0.26537700
Se   21.18468000   10.21181000    2.31379000      0.748985   -0.72003200   -0.47587800
Se    1.48644000   11.27739000   12.47791000      0.023253    0.05600600    1.00792000
Se    1.08800000   14.03016000    1.27139000     -0.307801    1.27400700    0.14016500
Se    0.46471000   20.35708000   12.08716000      0.090667    0.69698600   -0.01856100
Se    3.80397000    0.58097000    4.53257000     -0.159968   -0.34750400    0.19713200
Se    4.14588000   18.94264000   13.86265000      0.631147   -0.41007500   -0.19897500
Se   10.01415000    5.95883000    6.36541000     -0.143157    1.15095400   -0.41944400
Se    7.38328000    4.06846000   12.96021000      0.065152    0.09651100   -0.55156400
Se    5.24484000    6.89114000    4.11845000      0.862490   -0.31100100   -0.71528200
Se    8.30857000   10.33028000   12.25622000     -0.391406   -0.21684000    0.16745400
Se    8.52495000   17.39784000    2.85715000     -0.783487    0.35504900    0.59592300
Se   12.06887000   15.30933000   13.52107000     -0.896701   -0.34103600   -0.86274900
Se    5.52131000   20.63875000    6.08397000      0.259841   -0.96383500   -0.60874400
Se    7.72313000   20.66725000   13.96962000      0.069186   -0.35922500    0.28851700
Se   12.65103000    1.82298000    2.90442000      0.090021   -0.47597800    0.27969700
Se   11.24062000    3.93955000   12.32138000     -0.457021   -0.15624400    0.15681700
Se   14.34380000   10.69072000    3.89726000      0.075495    0.77800700   -0.91534700
Se   12.00324000    9.81663000   13.03513000     -0.056081   -0.42403300   -0.49751100
Se   11.64719000   15.11848000    3.41770000     -0.290394   -0.51403700    0.04102300
Se   14.43806000   17.57617000   12.28900000      0.714164    0.26468500   -1.08789600
Se   13.65573000   19.97089000    1.72429000      0.387397    0.09847300   -0.49874200
Se   13.05776000   22.09097000   14.38707000      1.044258    0.74123700    0.10986300
Se   16.76545000    5.20974000    0.41999000      0.193440    0.20119100    0.37433600
Se   15.82371000    7.30221000   11.88118000      0.065108   -0.32495200   -0.16549200
Se   17.64122000    8.20484000    3.67812000      0.157456    0.01129200   -0.89862400
Se   21.00049000   12.34359000   13.12256000     -0.008974   -0.05128300   -0.08014400
Se   21.61230000   15.24285000    3.73898000      0.603393    0.14779500    1.20305600
Se   19.19776000   16.29962000   11.86145000     -0.522562   -0.40423200    0.33164900
Se   18.13907000   20.99925000    4.02888000      0.906163   -0.05544000   -0.86340700
Se   17.56044000    0.41328000   12.16607000     -0.699213    0.08072400   -0.22821900
