384
23.00800000 23.00800000 19.32000000
Ge    5.44666000    5.20870000   10.76204000      0.542734    0.21767500   -0.42049500
Ge    5.46913000    6.47515000    2.06003000      0.356183    0.80641700    0.11117600
Ge    1.71387000   11.38364000    7.96842000     -0.259847    0.21363200   -0.12924200
Ge    5.90653000   11.60768000   18.28308000     -0.822948   -0.22766000    0.10280300
Ge    4.32961000   14.98260000    9.33614000      0.001534   -0.54923800   -0.26407400
Ge    8.11798000   17.75168000    0.78127000      0.905158    0.31783300   -0.74660000
Ge    9.22464000   19.80255000    9.90286000     -0.519910    0.33666400   -0.51625300
Ge    4.23239000    3.47448000   19.13250000      0.240535   -0.69689700   -0.77929600
Ge    8.95547000    5.52211000   10.77262000     -0.082965    0.31578100    0.18420900
Ge   10.94617000    5.27107000    1.51358000     -0.239346    0.61496100   -0.34993900
Ge   10.87224000   12.15298000   10.14708000      0.524041    0.25830300    0.53154500
Ge   11.67077000   12.34230000   17.77787000      0.816869   -0.18368400   -0.12734200
Ge    9.66962000   16.46805000    7.74692000      0.120701    1.89057600    0.89958600
Ge   13.22341000   15.35184000    0.94193000     -0.170854    0.51749400   -0.78773300
Ge   10.67380000    1.88778000    9.44515000      0.889256    0.94805500    0.74517500
Ge   15.98346000   21.62147000    0.42649000     -0.025881   -0.54635600    0.21377600
Ge   19.30735000    5.41506000   10.33673000      0.116242    0.24574300    0.34448100
Ge   19.32482000    8.98435000   17.47055000     -0.119740    0.55339000   -0.54780500
Ge   21.55322000   14.39634000   10.71933000     -0.773852   -0.01511700    0.36376200
Ge   16.91094000   11.21508000   19.12060000      0.366823    0.05244900   -0.66687900
Ge   14.15142000   17.23929000    7.61811000     -1.324470    0.06472500    0.10659800
Ge   18.28910000   13.84396000    1.39403000      0.358558    0.65113600   -0.79343400
Ge   19.84980000    0.67152000   10.16285000     -0.239623   -0.23880800   -0.12452800
Ge   18.14799000    2.80691000    0.32079000     -0.257309   -0.03314500   -0.01609000
Ge    0.20244000    6.22129000    8.83848000     -0.657488    0.30989900    0.36823200
Ge   21.14423000    3.49229000    1.01634000      0.382318   -0.20329000   -1.01629900
Ge    1.35451000   11.32312000   10.86878000     -0.214495   -0.74825000    0.33186700
Ge    0.83805000   11.61664000   18.56852000     -0.163265    0.17895400   -0.08924700
Ge   22.83740000   14.76656000    8.46463000      0.488309    0.18482800   -0.48615500
Ge    1.12030000   15.81200000   17.05610000     -0.907143   -0.77986500   -0.52975200
Ge   20.63137000   20.85364000   10.31148000     -1.551037    0.90038200   -0.18549900
Ge    2.58283000   21.41564000   19.28037000     -0.890676   -0.61637000   -0.03411600
Ge    5.85836000    8.71474000    8.30415000      0.194439    0.29744000    0.13708600
Ge    1.00947000    7.38449000    0.46234000      0.169956   -0.90977900    0.30950900
Ge   22.22497000    8.20369000    5.82849000      0.585841   -0.08465800   -0.26485900
Ge    3.66111000   13.35728000   15.22431000     -0.013242    0.24444800    0.73740200
Ge    3.95051000   17.75898000    3.06786000     -0.379948   -0.12047900    0.17148900
Ge    0.75703000   18.94277000   17.61641000      0.984449    0.77134000    0.55129100
Ge    4.80216000   19.10815000   10.15042000      0.248389    0.20744600   -0.41789700
Ge    3.65736000    0.22186000   16.69899000     -0.296096   -0.88277300    0.27218000
Ge    8.59262000    3.40260000    6.80245000     -0.685996    1.06265900    0.34322000
Ge    8.12466000    3.98154000   18.56852000     -0.076561    0.85440200   -0.11116700
Ge    6.99273000   12.89588000    4.07293000     -0.170724    0.08146200    0.18712700
Ge    8.36615000    7.71384000    1.37227000     -1.017098    0.28673700    0.43022800
Ge    5.90287000   16.94174000    6.99711000     -0.152490    0.23876900    0.18293300
Ge    8.89182000   14.75557000   18.32624000      0.132497    1.92094200   -0.42844300
Ge    9.85553000    0.49976000    6.10905000     -0.045236   -0.72234900   -0.91001100
Ge   10.84404000   21.96886000   13.82880000     -0.316331   -0.00129300    0.07649300
Ge   12.90709000    6.45483000    9.10195000     -1.123960   -0.21845100   -0.09044300
Ge   14.52275000    6.79006000   17.00844000     -0.118961    0.20574200    0.59825400
Ge   12.27857000    9.73103000    8.59703000      1.166242   -0.62979500    0.02328900
Ge   15.61092000   13.40512000   16.17708000     -0.126530    0.40996500    0.09123800
Ge   13.49404000   16.87665000    4.96133000     -1.723913    0.24713400   -0.36328400
Ge   14.33711000   17.99340000    0.81043000     -0.025196   -0.72608500   -0.43739900
Ge   14.13099000   22.13601000    8.09844000     -0.168737   -0.49593400   -0.32581200
Ge   16.83496000    1.62928000   14.83375000      0.158850    0.16841300   -0.36521700
Ge   19.85278000    4.12554000    6.65901000     -0.476857    0.49423900    0.95728200
Ge   21.00200000    5.85247000   16.89395000     -0.808221    0.29208700    0.32381300
Ge   16.16366000   11.07355000    7.46751000     -0.318642    0.32219700   -1.68841500
Ge   19.95119000   13.94799000   17.46962000      0.658397    0.25585400    0.12336400
Ge   18.79185000   16.61292000    5.26889000      0.341555    0.25893000   -0.13919200
Ge   20.09677000   19.24327000   16.84479000     -0.244642   -0.11917300   -0.52118400
Ge   22.79110000    1.57071000    4.97861000      0.326415   -0.06816300    0.06823600
Ge   19.21544000   22.07601000    0.43141000      0.447013   -0.40796500   -0.52613000
Ge    5.66209000    3.54039000    7.05385000     -0.812899   -0.43005200   -0.00159000
Ge    2.56578000    4.98593000   15.54212000      0.009327    0.79483300    0.44617700
Ge    2.84885000    5.93531000    4.81584000      0.569136    0.78584100   -0.06821400
Ge    3.62251000    9.69659000   14.23597000     -2.074010   -0.66607700   -0.44020900
Ge    1.23973000   15.09469000    4.43426000      1.127782    0.24282400    0.32935200
Ge    0.26235000   18.64332000   13.10936000      0.387275   -0.32628600    0.65636200
Ge    1.88939000    1.91170000    6.90674000     -0.196702   -0.17925600    0.68760200
Ge    4.57623000   16.72836000   16.05224000      0.074745    0.14334100    0.21456600
Ge   10.04479000    2.73041000    1.90598000     -0.169163   -0.16236000    0.18193200
Ge   10.29596000    2.31109000   16.68121000     -0.055400   -1.83022100   -2.70339100
Ge    8.68038000    8.90090000    5.69472000     -0.846348   -0.79891300    0.82184500
Ge    9.72336000    8.28049000   13.96379000     -0.904070    0.40802900    0.45133000
Ge   10.78489000   13.82718000    5.20976000      1.267797    0.66787800    0.82586600
Ge   11.30634000   12.15313000   14.99110000     -0.099603   -0.41446400   -0.92577100
Ge    6.20163000   21.38736000    2.62329000      0.070386   -0.17938200    0.46222400
Ge   10.42785000   17.97821000   16.76825000     -0.124988    0.78009100    0.10736100
Ge   14.01238000    1.87554000    5.88667000     -0.230514   -0.03121700    0.42543600
Ge   11.01190000    5.61083000   14.95344000     -1.115653   -0.38245000   -0.22888400
Ge   15.02203000    7.08964000    6.20094000     -0.053728   -0.33106600    0.01995200
Ge   13.96735000    9.57536000   14.93663000     -0.383242   -0.34274400   -0.67778000
Ge   14.90134000   13.64234000    4.86135000     -0.585533   -0.08914600   -0.26936000
Ge   15.85500000   16.38533000   15.02523000     -0.298342    0.18324900    0.49611800
Ge   11.21422000   17.62411000    2.95380000      0.307647    0.44977200   -1.11126500
Ge   12.71253000   21.94057000   17.41424000     -0.635829   -1.14674400   -0.01520200
Ge   17.60445000    5.52889000    4.19201000     -0.613820   -0.22549200   -0.31241400
Ge   20.77822000    2.73450000   12.65148000      0.798962    0.05686900   -0.12894500
Ge   19.55247000    8.59320000    6.60610000     -0.201142   -0.26868700    0.39236200
Ge   18.63741000   11.89071000   14.59099000      0.058646   -0.92744500    0.06378100
Ge   22.82697000   15.07246000    0.97228000      0.019467   -2.11317200    1.06102600
Ge   18.68495000   15.18164000   13.30547000      0.228929   -0.16193600    0.02578000
Ge   20.06996000   20.62019000    5.72537000     -0.023985   -0.59555700   -0.29795000
Ge   22.53974000   21.24671000   15.14777000      0.262560   -1.20012600    0.44477600
Ge    4.57961000    2.65678000    3.44554000     -1.010295   -0.50646300   -1.07933900
Ge    5.51558000    3.80963000   15.35013000      0.159493    0.16098700    0.16773000
Ge    4.29063000    9.37922000    4.37223000      0.222682    0.60265700    0.26760700
Ge    5.07245000    8.33166000   12.34481000      0.023662   -0.34810700   -0.72771900
Ge    6.20318000   14.98652000    1.41606000     -0.526739   -1.14017900   -0.80233900
Ge    3.33683000   14.52193000   12.50321000      0.187395   -0.02682700    0.08700500
Ge    4.38385000   22.55361000    5.94981000      0.272997   -0.05845900   -0.25623900
Ge    7.22522000   20.00437000   12.47323000     -0.906051    0.92323700    0.26151300
Ge   12.09655000    4.36017000    5.26423000      0.768464    0.81032200   -0.93316900
Ge    7.48523000    1.96036000   12.94445000      0.315569    0.03008300   -0.69794300
Ge   11.91682000   10.06985000    1.04409000      0.215248    0.15233400    0.05305700
Ge   13.26424000    7.16539000   13.58318000      0.179028    0.33011300   -0.27606200
Ge    9.70405000   13.74668000    1.63023000      0.468647    0.34820000    0.32656200
Ge    8.83691000   15.34573000   11.39356000      0.555758   -0.33824900    0.55334500
Ge   12.26684000   21.39339000    1.89177000     -0.387785   -0.14056800   -0.72512100
Ge   11.96788000   18.97267000   11.61097000     -0.045152   -0.41724600    0.00311400
Ge   21.57636000    0.75942000   17.46969000      0.519240   -0.30642600    0.23833900
Ge   14.03574000    4.91616000   11.49397000     -0.184057   -0.42918400    0.84393300
Ge   18.33452000    7.94674000    1.41282000     -0.545327    0.09582200    0.01826500
Ge   15.86296000    8.11179000   10.11725000      0.129552    0.38940500    0.59309100
Ge   17.74915000   11.26506000    3.05114000      0.811827    0.52546000    0.44300800
Ge   19.47368000   15.01929000    7.98147000     -2.034013   -2.28229700   -0.03408700
Ge   17.94167000   17.93858000    3.07646000      0.491708    0.48177300   -0.51121300
Ge   15.90584000   20.10257000   11.50070000     -1.397985    0.89627200   -0.31691700
Ge    0.48690000    0.53032000    2.35979000     -0.247991   -0.05130200   -0.98016500
Ge    0.58069000    0.20649000   12.04269000     -0.414625    0.29406600   -0.38671400
Ge   20.14103000    6.26705000    3.82849000      0.164807    0.31861000   -0.28168800
Ge   22.37510000    9.23463000   12.98613000      0.826335    0.06992200    0.43137400
Ge   20.99169000   13.01358000    4.06487000      0.046249    0.22037000    0.25528500
Ge    0.95221000   17.39928000    9.39600000     -0.585669   -0.56351000   -0.12384300
Ge    2.45367000   20.51588000    3.52046000      0.164165   -0.20696500    0.19795100
Ge   20.85414000   16.75417000   12.64783000     -0.709331   -0.20249800   -0.71998900
Se    0.81125000    1.12734000   18.59295000      0.096406   -0.06291500    0.18011500
Se    1.50944000    3.28085000   11.70302000     -0.895218    0.62578700    0.24857400
Se    0.26121000    7.19470000    2.84679000     -0.844712   -1.80027400   -1.24413000
Se    0.03900000    6.80528000   12.85731000     -0.501644    0.71454700   -0.54192800
Se    3.91845000   10.68535000    0.88280000      0.571411    0.50563000   -0.24732400
Se    1.84998000   13.69409000    9.78108000     -1.000409   -0.26414300   -0.42184100
Se    1.38840000   17.90499000    3.25916000      0.781434    0.10121200    0.34575600
Se    0.78892000   19.85354000    9.60345000      0.956469    0.26829200    0.09207200
Se    6.90915000    2.17577000    1.40812000      0.135250    0.24824500    0.21156800
Se    6.82757000    1.67841000    9.91546000     -0.122572   -0.65876700    1.15542600
Se    7.52204000    5.12908000    1.84198000     -0.012285    0.12870400    0.43037400
Se   10.53711000    6.93901000   12.08281000     -0.032604    0.36911000    0.25326200
Se    8.80492000   11.59052000    0.98746000     -0.668521   -0.18655100   -0.36229800
Se    5.82138000   14.67560000   12.94214000     -0.345845   -0.46477200   -0.96790700
Se    4.13707000   19.97578000    1.45814000      0.141786   -0.54771500   -0.37697400
Se    8.95142000   18.45948000   12.08704000      0.769698   -0.74200200   -0.33032700
Se   13.86335000    3.66798000    1.05683000      0.316343    0.09256900   -0.83488500
Se   12.90412000    0.64914000   10.02916000      0.002927    0.03503300   -0.07218000
Se    9.55236000    6.59205000   19.00742000      1.289716   -0.39284000   -0.23592600
Se    9.45365000    9.64602000    9.36585000      0.054805    0.47776700    0.03198600
Se   12.24807000   12.84932000    0.62073000      0.167163   -0.12717000    1.49422400
Se   13.49603000   11.50523000    9.90682000     -1.219478    0.28224400    0.09564300
Se   15.65245000   14.99791000    1.77242000      0.244784    0.03624000   -0.42525600
Se   11.61479000   17.92002000    8.20957000      0.251748   -0.24812400    0.15246600
Se   16.45197000    3.44004000    2.47407000      1.000812    1.09998000    0.45237200
Se   15.60558000    2.83112000   11.35847000     -0.424665    0.23756200    0.14418000
Se   17.13415000    6.66798000   17.50829000      0.090139    0.35906500    0.19034500
Se   20.89345000    7.20313000   11.48437000      0.126878   -0.36932300    0.02698500
Se   19.21585000   10.12925000    0.44086000      0.092312    0.55279000    0.70355100
Se   17.26562000   15.59453000    6.85038000      0.359062   -0.23150600    0.71430700
Se   19.12814000   16.67221000    0.89335000     -0.252341   -0.56996300    0.53542000
Se   17.68030000   18.87096000   10.57975000      1.083855   -0.64193600    0.42027800
Se    3.64714000    4.81317000    1.74745000     -0.407950   -0.31607900    1.10927100
Se    3.41855000    6.37001000   11.77288000      0.036238    0.58550800   -0.10051500
Se    5.56173000   10.83296000    2.71612000     -0.620988   -0.60971800   -0.75832500
Se    5.12584000   13.13028000   10.94428000      0.294108    0.27567600    0.40975400
Se    3.92608000   15.21283000    3.75964000      0.627760   -0.16370900    0.23315300
Se    3.14255000   16.82398000   10.44316000      0.341220    0.14588800    0.96078300
Se    4.00101000    0.28441000    0.42869000      0.432585    0.44440200    0.26719400
Se    6.86663000   21.28713000   10.39258000      0.350481   -0.97994400   -0.12443100
Se   10.51862000    6.31958000    3.87264000      0.395542   -1.09477800   -0.08768000
Se    7.57829000    3.81745000    9.40817000      0.319443   -0.36075500   -1.16744200
Se   10.41346000   10.42956000   17.50111000      0.599689   -1.36641800   -0.42354700
Se    7.46104000   10.72931000    8.55459000     -0.400823    0.21026000    1.04164400
Se   10.94126000   17.19813000    0.47402000     -0.854814   -0.02559800    0.05754100
Se   11.49780000   15.02624000   11.16302000     -0.407796   -0.52811900   -0.04960300
Se   13.99657000    0.17869000    2.04044000      0.950283   -0.85426000   -0.06106100
Se   11.99286000   21.38409000   11.69077000     -0.119890    0.17245200    0.15796200
Se   13.28090000    5.96973000    0.94483000     -0.073498   -0.00475200    0.27955600
Se   17.76853000    6.98023000   11.90935000     -0.541394    0.13851700   -0.53097900
Se   15.87271000    9.05777000    0.55275000     -0.889982   -0.35284900   -0.20864000
Se   15.29328000   10.53764000   13.08984000     -0.206775    0.03757900   -0.26599900
Se   18.45811000   14.49472000    3.69124000      0.762702   -0.41527400    0.83485900
Se   14.56226000   13.94873000    9.36604000     -1.746360    1.65208900    0.37731000
Se   17.62006000   22.70261000    2.12884000     -0.515867    0.05892700   -0.31333300
Se   13.95957000   19.67998000    9.05334000      0.190147    0.47341600    0.86795800
Se   21.14968000    0.71079000    1.31446000     -0.047576    0.55694300    0.20210000
Se   22.59564000    4.47474000   10.77905000     -0.060790   -0.35413800    0.42270600
Se   20.36091000    6.15838000    1.04297000     -0.319675    0.49581700    0.81540000
Se   22.02798000   10.19265000   10.85334000      0.131826    0.38937800   -0.37053400
Se   21.58246000   12.94400000    0.23787000      0.333191    0.72361100   -0.30510300
Se    0.15607000   16.05361000   12.38832000      0.536726    0.14722500   -0.19763500
Se    0.50242000   21.06319000    2.03816000      0.416737    0.46384100   -0.44901900
Se   19.83274000   21.07758000   14.24212000      0.473335   -0.05622200    0.13286400
Se    4.16615000    4.97337000    8.54741000      0.043897    0.23517100    0.03017200
Se    0.49179000    6.44277000   16.37191000      1.092721    0.17132600   -0.35746800
Se    4.16651000   11.22974000    8.50485000      0.710831   -0.49792500    0.61000900
Se    4.04644000    8.67559000   17.35297000     -1.309036   -0.49151700    0.33757700
Se    3.60632000   18.38197000    7.85463000      1.565008    0.62790600   -0.70799800
Se   22.62044000   17.92983000   15.73863000     -0.149167   -0.42565500    0.11527900
Se    3.47696000   22.06789000   11.86828000     -0.024485    0.12504100   -0.21851600
Se    8.15253000   22.97884000   16.47819000      0.646133   -0.84151800   -0.65922500
Se    6.30582000    3.83168000    4.41132000      1.855050    0.82407800    0.76604800
Se    5.49961000    5.06934000   17.68594000      0.298561   -0.44762400    0.13645700
Se    6.74831000   10.25066000    5.39996000     -0.685243    1.32369800   -0.11339600
Se    4.47965000    6.72150000   15.13848000     -0.474461    0.01923800    0.49112100
Se    6.36371000   16.28400000    9.37489000     -0.166191    0.72531400    0.31531700
Se    6.67438000   16.21883000   18.49579000      0.107193    0.13651600    0.11116300
Se    8.05756000   18.55301000    7.89405000      0.504936   -0.64095000   -0.17757000
Se    8.15184000   22.97348000    1.71965000     -0.801297   -0.92423200   -0.36211100
Se   14.59180000    2.01525000    9.06078000     -0.159525    0.31171300   -0.43275900
Se   12.39274000    4.68433000   16.68424000      0.016026   -0.86448600    1.30880400
Se   12.95407000    8.20650000   10.93854000      0.798509    0.02698100   -1.07771100
Se   13.67421000   11.71613000   16.32385000     -0.546679    0.10682400    0.21324900
Se   13.25300000   14.90859000    6.68713000      0.460062    0.58017700   -0.33564200
Se   13.84866000   15.68818000   17.23136000      0.017716   -0.52129200    0.09349100
Se   12.46796000   21.70300000    5.90277000      0.371552    0.61354000    0.70873300
Se   17.32508000   21.50219000   17.27348000      0.272198    0.09489300    0.82065100
Se   19.26868000    3.10400000    9.30923000     -0.014957   -0.07905600   -0.57773300
Se   19.89345000    3.47390000   17.80409000      0.009001   -0.18575900    0.11835000
Se   17.83057000    9.67445000    8.20960000      0.906670   -1.05665900    0.85714200
Se   17.26093000   10.37051000   16.64457000      0.260320    0.54125000   -0.24434200
Se   14.96088000   16.49108000    9.56521000      1.090997   -0.75246900    1.61734700
Se   18.04071000   15.01153000   15.84692000     -0.034688    0.56130900   -0.54020700
Se   17.95485000   18.84841000    8.17693000      0.423083    0.36283800   -0.02052700
Se   20.08611000   19.66517000    2.33959000     -0.263807   -0.11762300    0.81367400
Se    4.59489000    1.24583000    8.10362000     -0.233334   -0.42598100   -0.66284200
Se   22.97078000    4.18046000   17.33106000      1.111175    0.00052500    0.08633900
Se    6.84519000    7.57186000   10.39871000      0.232987   -1.12433400    0.55516400
Se    3.33997000    6.88147000   19.29828000      0.211162    0.81883900   -0.86823900
Se    3.57540000   14.56904000    6.85758000      1.111353    0.06304800    0.36875900
Se    4.62776000   14.58437000   17.49296000      0.133709   -1.84456400   -0.53600700
Se    3.36698000   21.15476000    9.60855000     -0.274982   -0.04846000   -0.13458100
Se   22.18031000   16.81286000   19.07671000      0.187076    1.30130800   -0.92525700
Se    9.32453000    0.05918000    8.65172000     -1.063476   -0.86059100   -0.24990700
Se   10.69554000    3.17908000   18.72743000      0.538272    0.99972800    3.37919100
Se   11.68068000    4.38551000    9.83631000     -0.067862    0.83593400   -0.05013700
Se    6.40023000    8.43928000   18.90771000      0.583636    0.18537000   -0.24819100
Se   10.08823000   13.21623000    8.08231000      1.772265   -1.09152300   -0.61887500
Se    8.55435000   12.45713000   17.99532000     -1.253525   -1.25926900   -0.06786300
Se   10.98566000   21.45567000    8.09260000      0.441103   -0.89202200   -0.32250300
Se   11.56417000   14.39199000   16.64958000     -0.040108    1.54032800   -0.33531500
Se   17.07330000   21.82513000    8.53179000      0.474736    0.51471300   -0.22645300
Se   15.41699000    3.89689000   18.44920000     -0.423122   -0.05006200    0.46982000
Se   15.18730000    5.76182000    9.47948000      0.965372   -0.24689400   -0.95383200
Se   13.51423000    9.36353000   18.59824000      0.085212   -0.14882300    0.78586700
Se   16.23690000   12.48536000    9.43887000      1.925614   -0.96898300    0.43539500
Se   16.40921000   13.94468000   18.53393000     -0.256311   -0.34016100    0.05952600
Se   14.93502000   18.67851000    5.93412000      0.659504    0.19478100    0.19636500
Se   16.52140000   18.92172000    1.24657000      0.202431    1.12330600   -0.54867800
Se   22.24794000   22.69160000    9.72912000      0.370107    0.24047100   -0.02753200
Se    0.07486000    0.57672000   15.26169000     -0.252577    0.69251500    0.13828500
Se   20.27568000    6.30691000    8.16311000      0.333591    0.41445600   -0.45783600
Se   21.89242000    8.02489000   19.00330000     -0.932498    0.63663200   -0.80294500
Se   21.58187000    9.75807000    7.58786000     -0.060154   -0.07407500    0.02546600
Se   22.08391000   10.21283000   17.31048000     -0.271194    0.20541400   -0.08437100
Se   20.86016000   16.06744000    6.61790000      1.402179    1.50213800   -1.37392400
Se   19.07213000   16.64838000   17.58972000     -0.112146   -0.35956700    0.39216900
Se    2.06125000    2.09470000    9.87037000      0.871944   -1.01091000   -0.80581600
Se    2.98952000    2.28554000   15.39688000      0.331010    0.18039600   -0.18957300
Se    1.63649000    8.26852000    7.47567000     -1.694253    0.66643500    0.12569600
Se    1.88940000    9.28490000   16.16722000      0.815723   -0.42239600    0.07289400
Se    1.50998000   16.42924000    6.86352000     -0.662689   -0.45554200   -0.21774400
Se    1.36905000   12.78748000   16.28878000      0.078191    0.35143900    0.78315800
Se    0.53648000   18.50441000    6.29003000     -0.297275    0.09329300   -0.36659000
Se    2.44815000   20.73015000   16.14279000     -0.242524    0.20856400    0.54276400
Se    7.42235000    0.86951000    5.18179000     -0.197995   -0.25162000    0.24346300
Se   13.08200000    0.69263000   19.01924000     -0.287158    0.22324100    0.37163000
Se    7.43327000    6.94758000    7.05241000      0.808301    0.35486500   -0.83633100
Se    7.30101000    7.37406000   14.28939000      0.533837    0.03402600    0.24536600
Se    7.35483000   14.12588000    6.38338000     -0.621278    0.07283400   -1.01870400
Se    8.64573000   16.75824000   14.96033000      0.389815    1.15632600   -0.13904100
Se    4.62854000   19.88708000    5.87552000     -0.253303   -0.16099300    0.71622000
Se    8.29280000   14.67952000   15.70008000      0.165499   -1.23402300    0.67765400
Se   15.08544000   22.00834000    4.67087000     -0.356118   -0.16623900   -0.54726400
Se   15.09350000    1.48631000   16.74778000     -0.094414   -0.17639700   -0.40151000
Se   12.30177000    7.01290000    6.74854000      0.587470   -0.25403700    0.19232900
Se   10.70319000    7.78102000   16.11018000      0.204940   -0.25477900   -0.34429600
Se   12.80492000   11.91816000    4.66228000      0.234988   -0.14658400   -0.39061300
Se   14.59081000   14.39628000   13.60111000     -0.266745   -0.32391900   -0.23010500
Se    9.31997000   15.95853000    5.52363000     -0.327894   -0.32753600   -1.13854000
Se   13.52728000   19.86731000   18.65914000     -0.037403    0.84759100   -0.29494900
Se   20.36203000    1.82605000    5.05556000     -0.027453   -0.46359400   -0.16065000
Se   18.54990000    0.56560000   17.74814000     -0.316756   -0.14970200   -0.14801800
Se   17.33999000    4.95916000    6.56483000      0.777038   -0.20048200   -0.38697700
Se   18.81816000    6.91278000   15.80659000     -0.766071   -0.02102000   -0.41539900
Se   21.02884000    9.66688000    3.58159000     -0.775748    0.25646700    0.46068800
Se   17.03568000   13.33779000   13.35440000     -0.188390   -0.09161500   -0.55038300
Se   17.85441000   19.55719000    5.63049000     -0.369728    0.05219000   -0.81758000
Se   17.56013000   22.50352000   13.35136000     -0.262700    0.23638400   -0.26343600
Se    3.62680000    7.25620000    7.12726000      0.327245   -1.28972800   -1.27084300
Se    3.70700000    4.37691000   13.34468000     -0.255713    0.23083500   -0.33073500
Se    1.74857000    8.42485000    4.01157000      1.396562    0.79859100    1.02688500
Se    5.33468000   10.59760000   15.49732000      1.251637    1.55342400    0.79494300
Se    5.28420000   12.69302000    6.71666000     -0.373708    0.47346800   -0.39579300
Se    2.99319000   17.08423000   18.07563000      0.204634    1.29381500    0.08716000
Se    1.72334000   21.57229000    6.05929000      0.533243    0.00873000    0.04685400
Se    4.35607000    0.47712000   14.30929000      0.318133    0.06597000    0.07421800
Se   10.94986000    2.79797000    6.78086000      0.438382   -0.73318800    0.69063600
Se    8.77452000    4.10060000   16.08148000     -0.170593    0.65442600   -1.07513900
Se   10.17130000   10.25094000    7.08820000      0.413382   -0.25856700   -0.79079600
Se    8.78922000   10.62874000   14.43888000     -0.408124   -0.76336300   -0.04724900
Se    8.46007000   14.59214000    8.92432000     -0.978678    0.83240100    1.40311300
Se   12.84353000   18.32778000   16.03399000     -1.005557   -0.05525300   -0.45441200
Se    9.44130000   19.27410000    3.37125000     -0.239308    0.68654200   -0.01476000
Se   10.21625000   20.80345000   17.29748000      0.402805    0.45603500   -0.07490800
Se   14.72943000    4.13012000    5.20359000     -1.366530    0.28170600    0.27984100
Se   18.16111000    4.08635000   14.60376000      0.419592   -0.74994000   -0.14209100
Se   14.27951000    9.63244000    6.81155000     -0.157975    0.10826300    0.30136700
Se   17.54878000    9.91442000   13.20565000      0.583627   -0.09095000    0.27908400
Se   17.10199000   12.38101000    5.46991000     -0.132761   -0.42137700    0.62935600
Se   15.98514000   18.79627000   15.98375000     -0.109400    0.77809200   -0.54812700
Se   16.13029000    1.09173000    4.96895000      0.163619   -0.23928700    0.01796700
Se   18.37197000    3.11781000   12.31411000     -0.055416    0.55250800    0.49852800
Se    0.55648000    4.32027000    7.28483000     -0.370163   -0.87041700    0.54576500
Se   22.22899000    3.71000000   14.78395000      0.007854   -0.96401400   -0.63028000
Se   20.13653000   12.56941000    7.67185000     -0.442660    0.88386400    0.47626900
Se   21.68537000   11.83964000   15.27334000     -0.267621    0.40183200    0.57647300
Se   22.45904000   12.89106000    6.74062000     -0.474665   -0.06779800   -0.46719300
Se   19.77636000   18.07901000   14.26834000     -0.520695    0.93195500    0.58565000
Se   20.41303000   19.54412000    8.03609000     -0.081069   -0.21336500    0.32575100
Se   21.86601000   20.86071000   17.73456000     -0.051433    0.56020500   -0.12365900
Se    3.24688000    3.41719000    5.52661000      0.845895   -0.29654100   -0.00685600
Se    7.69930000    1.50212000   18.11781000     -1.031507   -0.20436900    0.24672600
Se    0.68402000    4.85685000    0.29732000     -0.326463   -0.55592600    0.42791500
Se    3.78050000    8.73684000    9.75375000     -0.459805    0.58063600    1.83639200
Se    0.49083000   12.21831000    2.76418000     -0.109276    1.59142100    1.27955900
Se    2.59625000   15.77006000   14.70123000     -0.185503    0.26434800    0.17689600
Se    3.74704000   15.85665000    1.26427000     -0.089529    0.28469600    0.57575600
Se    5.35231000   18.31949000   13.29167000      0.471677    0.55301100   -0.79963600
Se   10.54105000    0.34436000    2.90975000     -0.126540    0.36780600    0.43076400
Se   11.76949000    1.35973000   13.77258000     -1.006223   -0.17572700   -0.49683900
Se   10.09940000    8.62083000    3.84133000      0.301006    1.01980700   -0.75032200
Se    7.11314000    8.98992000   16.52698000      0.509257   -0.16654100    0.03990300
Se    9.50169000   12.35419000    3.86203000     -0.683019   -0.76058300   -0.85614100
Se    9.24484000   12.47565000   12.19717000      0.739547    1.24193200   -0.92586200
Se    9.20349000   20.52395000    1.20727000      0.039172   -0.73192200    0.59009300
Se   11.10715000   19.11279000   14.33861000      0.699243   -0.33426800    0.42805500
Se   18.68554000    0.39435000    7.62874000     -0.295606   -0.60297800    0.79457900
Se   14.73614000    2.24235000   13.54189000      0.521811    0.03247800   -0.29925700
Se   15.65095000    7.04009000    3.65863000      0.035032   -0.08833600    0.58244200
Se   14.13500000    5.24330000   15.11270000      0.647338   -0.64853500   -0.16122400
Se   15.61027000   11.93731000    2.06959000     -0.861496   -0.12028900    0.30138100
Se   16.62279000   17.14385000   12.83319000      0.479602   -0.01023400   -0.61060300
Se   15.52534000   16.25557000    3.92185000      1.453646   -0.22525700   -0.47061500
Se   14.89750000   19.95941000   14.09132000      0.561241   -0.76757400    0.59366600
Se   22.56109000   22.12181000    5.31318000     -0.324211    0.14875000   -0.08402000
Se   20.84506000    0.32655000   13.39414000      0.234226   -0.28268100   -0.17856000
Se   20.85622000    3.89473000    3.41432000     -0.512543   -0.38736300    0.57884300
Se   20.76777000    8.89324000   14.69093000     -0.336252    0.88637900    0.04661500
Se    1.86197000   12.38417000    5.63214000      0.321703   -0.13415600   -0.09801500
Se   21.73818000   14.74880000   15.87546000     -0.488086   -0.84853200    0.05966700
Se   21.22299000   18.68010000    4.45912000      0.228414    0.57121600   -0.13905700
Se   21.87870000   18.91329000   11.00636000     -0.377138   -0.74664100   -0.08592000
Se    0.52060000    5.14045000    5.10543000     -0.721340    0.41683100   -0.34364700
Se   20.74806000    5.37823000   14.07239000     -0.004651    0.26937600    0.04248000
Se    0.02145000   10.07372000    2.41682000      0.066178   -1.60717700   -0.99480800
Se    1.30183000   11.12653000   13.46314000      0.088025   -0.38198700   -0.43363200
Se    1.98395000   13.79612000    1.66988000     -0.184051    0.24525400   -0.77797500
Se    1.48919000   20.94029000   12.73826000      0.039821    0.16442300    0.40327100
Se    4.09563000   22.87323000    3.07040000      0.182055    0.23126000    0.61889600
Se    5.48219000   19.36506000   15.32211000     -0.478923    0.17217600    0.60956100
Se    9.42925000    5.90503000    7.75102000     -0.004604   -0.57120200    0.40445100
Se    7.21294000    4.66081000   12.89851000      0.276895    0.11212400   -0.34466100
Se    5.59275000    7.31720000    4.51779000      0.078481   -0.82713200   -0.98182200
Se    8.04967000   10.50238000   11.89640000     -0.481236   -0.31048900    0.26240700
Se    7.60234000   16.39354000    2.66431000      0.280077    0.48922600    1.21627600
Se   12.15585000   14.52365000   13.46941000     -0.615280    0.21097300    0.31960600
Se    7.33016000   21.47759000    5.68574000     -0.218649    0.74781600   -0.52768600
Se    7.80568000   22.22788000   13.68329000      0.316990   -0.44836300    0.14371500
Se   12.26995000    2.01620000    3.60283000      0.461424    0.67355700    0.07428300
Se    9.96037000    1.99727000   11.95623000      0.209216   -0.13977400    0.91737600
Se   13.74124000   10.27003000    2.97504000     -0.032836    0.47715900    0.26401300
Se   12.03483000   10.40598000   13.36976000      0.690383   -0.63635500    0.26129200
Se   12.02861000   15.26467000    3.30515000     -0.237452   -0.57852100   -0.19214200
Se   14.18272000   17.56115000   12.74832000      0.334417    0.44197000    0.38413800
Se   13.36768000   18.99660000    2.74761000     -0.556654    0.10121900    1.25284900
Se   14.04855000   22.75226000   15.34198000     -0.347863    0.01023800    0.41134200
Se   17.22319000    5.23932000    0.62105000     -0.235077   -0.86748800    0.41490400
Se   15.73054000    6.05114000   13.21966000      0.509604    0.69357800   -0.63318100
Se   18.10170000    8.94335000    3.83752000      0.227245   -0.27685100   -0.05486400
Se   20.88301000   13.48512000   12.90198000     -0.542979    0.12748200   -0.08616600
Se   22.04747000   15.27316000    3.39998000     -1.243316    0.35232100   -0.57934600
Se   19.31933000   15.69031000   10.19225000      0.478100    0.00809100    0.87498200
Se   20.06715000   22.03884000    3.57227000     -0.246167   -0.02445500   -0.04221500
Se   16.22248000   22.71933000   11.04618000      0.595997   -0.50684300    0.37960500
