384
23.00800000 23.00800000 19.32000000
Ge    5.77902000    5.00086000   10.60937000      0.169272   -0.39673100    0.14427000
Ge    5.39009000    7.19932000    1.99870000      0.361900   -0.21710100   -0.01487000
Ge    1.53701000   11.23858000    8.04291000     -0.102837    0.05388000    0.45210900
Ge    5.27149000   11.32438000   18.14928000      0.084355   -0.20869900    0.59747900
Ge    4.44889000   14.81389000    9.51894000      0.032604    0.31207100    1.16959100
Ge    8.31292000   17.94548000    0.82094000     -0.782824   -0.24368400    0.38208700
Ge    8.93512000   19.73270000    9.40615000     -2.276027   -0.27681600   -1.33775600
Ge    3.96651000    3.21191000   18.76418000      0.498879    0.69454500   -0.13554000
Ge    8.90014000    5.95653000   10.48640000     -0.319012   -0.40108200    0.33125700
Ge   11.06453000    5.41083000    1.34926000      0.057228   -0.86567900    0.45760800
Ge   11.26284000   12.82021000   10.32622000     -1.833889   -0.09921500    0.55882200
Ge   11.72481000   12.56643000   17.69864000      0.543869   -0.46696600   -0.39379200
Ge    9.51257000   16.93788000    7.51635000      0.215824    1.12935500    1.88310000
Ge   13.63411000   15.54966000    0.95006000     -0.121931   -0.43599500    0.24764200
Ge   10.83844000    2.04760000    9.50742000     -0.163525   -0.03631400   -0.02546000
Ge   16.04150000   21.36013000    0.21215000      0.387494    0.90996100   -0.30992400
Ge   19.36029000    5.22657000   10.42661000     -0.168675    0.28080700    0.17132200
Ge   18.89643000    8.85680000   17.38086000     -0.069882    0.13896500    0.32692200
Ge   21.30934000   14.36565000   10.70576000      1.706516   -0.92136400   -0.39986600
Ge   16.63511000   11.02649000   19.05897000      0.500311   -0.18888600    0.12200800
Ge   13.92252000   17.37534000    7.88464000      0.269412   -0.37696800    0.27187900
Ge   18.62745000   13.86656000    1.48985000     -0.525421   -1.06940200    0.15328200
Ge   19.95265000    0.67451000   10.65512000     -0.062905    0.08840200   -0.44973500
Ge   17.77598000    2.35237000   19.11328000      0.246033    0.45992300   -0.17503700
Ge    0.02476000    6.80017000    9.32400000      0.753397   -0.36690200   -0.16172200
Ge   21.83095000    3.18734000    0.27263000     -0.753588   -0.44436900    0.22432100
Ge    1.53802000   11.08340000   10.89449000      0.211245    0.93283100    0.55247800
Ge    0.37741000   11.50660000   18.72195000      0.688363    0.26803600    0.46908200
Ge   22.80462000   14.76172000    8.17505000      0.405105    0.41513000    0.35098600
Ge    0.54027000   15.30575000   16.97305000      1.129663    0.08821800   -0.11005000
Ge   20.27930000   20.87156000    9.87397000      0.233309   -0.22058100   -0.18266100
Ge    2.94868000   20.87482000   19.19524000      0.342147    0.26525600    0.60558800
Ge    5.69286000    8.80124000    8.21776000      0.513010   -1.29309000   -0.33656600
Ge    0.57053000    6.80505000    0.17986000      0.488601   -0.10058200   -0.30789200
Ge   22.24994000    7.92099000    5.86296000     -0.423783   -0.08186700   -0.09429000
Ge    3.18476000   13.38027000   14.82351000     -0.077624   -0.30903400    1.13618000
Ge    4.57152000   17.15281000    3.57755000      0.335326   -0.18938000   -0.23927900
Ge    1.12887000   19.49768000   17.94147000     -0.265194   -0.00867900   -0.37559600
Ge    4.59073000   19.05511000   10.48271000      0.031958    0.26707100   -0.38691400
Ge    3.54679000   22.93208000   16.36020000     -0.259074    0.15731900    0.48202400
Ge    8.27553000    3.32605000    6.34455000      0.030376   -0.27796600    1.37753500
Ge    7.84432000    4.29341000   18.88068000      1.028804   -0.88005900    0.06371400
Ge    6.71702000   13.14120000    3.76447000      0.672769    0.17582600   -0.10078100
Ge    8.11467000    7.98788000    1.94875000     -0.664576   -0.57905800   -1.33955900
Ge    5.73155000   16.43588000    6.87155000      0.850399    0.89415500    0.08878100
Ge    9.11903000   15.14635000   18.05734000     -0.345543   -0.96523000    0.36412900
Ge    9.76859000    0.47689000    6.22971000     -0.194083    0.02741200    0.27523000
Ge   10.45823000   21.42284000   13.84793000     -0.252439    0.12904900    0.52598100
Ge   13.15005000    6.34526000    8.83698000     -1.207028   -0.17463100    0.50934900
Ge   14.17707000    6.49426000   17.68325000      0.113935    0.55201000   -0.50391800
Ge   12.67391000    9.76085000    9.05862000     -0.736502   -0.39382600   -0.94852200
Ge   15.87972000   13.53757000   15.74018000      0.106001   -0.50426200    0.06643500
Ge   13.65809000   17.31667000    4.44674000      0.486699   -0.62860400    0.70804900
Ge   14.17252000   18.11791000    1.21188000      0.203014    1.06967900    0.15334500
Ge   14.35023000   21.73541000    8.01700000      0.357845    0.25473000    1.45669900
Ge   16.67958000    1.81620000   14.65784000      1.486270   -0.63494400    0.89573700
Ge   19.77837000    4.41206000    6.85128000      1.510156   -1.05011800    0.00022500
Ge   20.56795000    6.23036000   17.13387000     -0.075864   -0.83898700   -0.63197500
Ge   16.40959000   10.72939000    7.08541000     -0.164716    0.96672300   -0.48964400
Ge   19.91342000   14.43044000   17.58003000     -0.117079    0.34959600   -0.82544000
Ge   18.96719000   16.87551000    5.03868000      0.327505   -0.43940100    0.05120400
Ge   20.08801000   18.47266000   16.44320000      0.445739    0.22984600   -0.16900900
Ge    0.00300000    2.09393000    4.60409000      0.419555    0.24542300   -0.05954900
Ge   19.20952000   22.14541000    0.34353000      1.260797    0.01322100    0.14983200
Ge    5.30241000    3.29475000    7.05254000      1.197564   -0.48574800    0.00573200
Ge    2.40933000    5.07105000   15.31640000     -0.666313   -0.13776400    0.38124800
Ge    2.48980000    5.82773000    4.54097000     -0.350703   -0.34778900    0.08754100
Ge    3.26297000    9.84375000   14.02267000     -0.102432    0.73563800    0.51169400
Ge    1.75883000   15.31915000    4.65461000     -0.735042    0.13446900   -0.40288300
Ge    1.04171000   18.43254000   13.06644000     -0.565617   -0.14211300    0.33057100
Ge    1.48633000    2.08341000    7.06475000      0.233267    0.21237400   -0.04873200
Ge    4.56597000   16.55865000   16.66027000      0.143602   -0.12497300   -0.21354000
Ge    9.65180000    2.66620000    2.54356000     -0.174785    1.23647900   -0.70533100
Ge   10.72469000    2.16770000   15.95530000     -0.568855    1.09383400    1.55742600
Ge    8.48359000    8.94563000    5.74845000     -0.167042   -0.11141100   -0.17494200
Ge    9.73048000    8.29573000   14.22749000     -0.956463   -0.13386500   -0.69517600
Ge   10.75721000   13.96051000    5.66555000      0.380279    0.17925600   -0.48177700
Ge   11.14878000   12.39173000   14.46081000     -0.149631   -0.53017600   -0.30168300
Ge    5.82291000   21.29816000    2.79805000      0.283772   -0.18341200    0.29177300
Ge    9.73096000   18.12191000   17.13810000      0.423281    0.63022200   -0.14904700
Ge   13.84027000    1.98152000    6.40216000     -0.254676    0.04773700   -0.69028400
Ge   10.50796000    5.47161000   15.21765000      0.500906   -0.04040100   -0.47732000
Ge   15.18311000    6.54453000    6.26702000     -0.031405    0.58536600    0.54511900
Ge   13.60012000    9.50749000   15.06062000      0.518389   -0.01858500   -0.66478900
Ge   14.55507000   14.18128000    4.27885000      0.859447   -0.95852500    0.44520800
Ge   16.00981000   16.58300000   14.85994000      0.077243    0.03673000    1.51331100
Ge   10.70657000   17.59460000    2.76608000     -0.184378    0.08244600    0.51353100
Ge   12.91913000   22.01906000   17.34077000     -1.422298   -0.03845100   -1.25008100
Ge   17.41292000    5.34711000    4.01616000      0.272644    1.20845900    0.07927300
Ge   21.08398000    2.98097000   12.07837000     -0.558044   -1.42981700    1.09947100
Ge   19.22657000    8.27752000    7.20313000      0.784150    0.53305500    0.05517300
Ge   18.76882000   11.66934000   14.58662000      0.806883    0.30011000   -0.46942900
Ge   22.95774000   14.81759000    0.76564000     -1.298454    0.38098100    1.01670900
Ge   18.58413000   14.91990000   13.04090000      0.651557    0.40628000    0.56892100
Ge   20.14770000   20.53203000    5.94891000      0.038894   -0.37240100   -0.79456100
Ge   22.56195000   21.21102000   15.20200000      0.617031   -0.59609200    0.63925500
Ge    4.57148000    2.86606000    2.96396000      1.069752   -0.78582200    0.42680600
Ge    5.95632000    4.74160000   15.40618000      0.920625   -0.62848100    0.47496900
Ge    4.14431000    9.50300000    4.81046000      0.300616   -0.46069100   -0.83006100
Ge    4.72216000    8.23898000   12.46858000      0.059376   -0.29772500   -1.06097500
Ge    6.01349000   14.38538000    0.86652000      0.404824    1.10544200   -0.08559300
Ge    3.28897000   15.26126000   12.77938000      0.017677   -0.10794400   -0.19500400
Ge    4.23605000   22.32206000    6.07320000      0.287146    0.31073400   -0.47288800
Ge    7.25372000   19.79207000   12.54684000      0.607156    0.62468200   -0.23098200
Ge   12.11339000    4.81972000    5.36394000      0.547023   -0.74748300    0.44110200
Ge    7.61877000    1.94083000   12.95252000     -0.596701   -0.58523000   -0.46642000
Ge   11.93047000   10.59589000    1.71514000      0.355565   -0.65591200   -0.08780000
Ge   13.14090000    7.14148000   13.62344000      0.330773    0.16133000    0.30580900
Ge    9.96963000   13.66692000    1.66360000     -0.061635    0.29043300    0.34762200
Ge    8.85698000   15.66497000   11.78260000      0.089692   -0.49187800   -0.65096100
Ge   12.03052000   22.33513000    1.02914000     -0.100028   -1.15734700    1.95147700
Ge   11.83231000   18.74105000   11.63959000      0.608502    0.78572900    0.06916900
Ge   21.37510000    0.50318000   17.65598000     -0.199682    0.84078700   -0.25004700
Ge   13.86775000    4.65538000   11.69465000      0.629113   -0.14346700   -0.78487600
Ge   17.99390000    7.95329000    1.64607000      0.202465    0.48523600   -0.29835500
Ge   15.84665000    8.04050000   10.17082000      1.164503   -0.80970300    0.07729200
Ge   17.90416000   11.75230000    3.33755000     -0.246296   -0.45265300    0.09325200
Ge   19.47439000   14.83345000    7.54338000      0.128264   -0.46862000   -0.16317100
Ge   18.13563000   18.46109000    2.99908000      0.402025   -0.97059000   -0.69547400
Ge   15.49544000   20.15878000   11.54578000      1.586016    0.08800400    0.59839700
Ge    0.52728000    0.20869000    2.43239000     -0.037379    0.48358900   -0.05021400
Ge    0.27646000    0.28284000   11.61485000      1.277132    0.09541100   -0.08640300
Ge   19.81581000    6.53295000    4.13195000      0.100064   -0.68820900    0.51049800
Ge   22.71298000    9.39149000   13.29690000     -0.555636    0.35277400   -0.06245300
Ge   21.16297000   12.75624000    3.59598000      0.396534    0.60874600    0.01206200
Ge   23.00642000   17.64927000    9.68987000      0.130217   -0.70947300    0.19586000
Ge    3.04187000   20.68620000    3.82731000     -0.767028   -0.25911600   -0.44873500
Ge   20.55096000   16.84123000   12.43323000      0.257432    0.53797000    0.11064800
Se    0.45941000    1.43311000   18.66857000      0.626791   -0.28035400    0.06710400
Se    1.57676000    3.30000000   11.08664000      0.277123   -0.23091900    0.30574800
Se   22.73465000    6.70252000    2.57226000     -0.099562    0.19065200    0.04159500
Se   22.82821000    6.93697000   12.80570000     -0.417093    0.44700700   -0.59281700
Se    3.59998000   10.92940000    0.70807000      0.644610   -0.05980800    0.51835500
Se    1.46512000   13.46173000    9.56270000      0.599840   -0.33009600    0.11428600
Se    1.86443000   18.00729000    4.12104000      0.397244   -0.05693300   -1.21574700
Se    1.26834000   19.87243000    9.60085000     -0.500802    0.52098200    0.31656200
Se    7.30892000    2.26166000    1.51615000     -0.161417   -0.38554100   -0.37021400
Se    6.63435000    1.39850000   10.45998000      0.288345    0.44772800    0.81802200
Se    7.56865000    5.43613000    2.74628000      0.661417    1.03931100   -2.19906100
Se   10.37062000    7.17543000   12.27641000      0.449710   -0.06869800   -0.29463300
Se    8.64536000   11.68040000    0.98985000     -0.372063   -0.36243300   -0.03702800
Se    5.91408000   14.91759000   12.44331000     -0.286557   -0.65984600    0.29235000
Se    4.33531000   19.46804000    1.44977000      0.372921    0.29008700    0.15061800
Se    9.30644000   18.45548000   11.28569000      0.042108   -0.86626500    0.93960600
Se   13.98472000    3.98689000    0.97574000      0.247606   -1.62538900   -0.12709900
Se   13.12072000    0.36007000    9.57277000      0.043297    0.37201700    0.28620700
Se    9.72094000    6.80066000    0.10058000     -1.166866    0.96784800   -0.03948600
Se    9.53217000    9.94291000    8.93600000      1.018897   -1.13456900    0.70420900
Se   12.62075000   12.92331000    0.91363000     -0.607638   -0.25615800   -0.81361400
Se   13.21856000   11.73657000   10.29255000      2.152618   -0.11844600    0.50339100
Se   16.16394000   15.26248000    1.32341000     -0.659272   -0.34164700    0.17053100
Se   11.56605000   18.30232000    8.23043000     -0.306662   -0.78783700   -0.20393000
Se   16.73516000    3.43387000    2.73987000     -0.189945   -0.39201100   -0.07646000
Se   15.18087000    2.44280000   11.21945000     -0.081206    0.66489000   -0.37696700
Se   17.11638000    6.37869000   17.53721000      0.479770    0.39111100   -0.29157800
Se   21.21482000    7.34823000   10.90260000     -0.015760    0.25422400    1.37222500
Se   18.99852000   10.26480000    0.69335000     -0.667993   -0.29331600   -0.34600600
Se   17.44723000   16.06170000    6.82522000      0.122562   -0.32678100    0.29530300
Se   19.06080000   16.18634000    1.37497000      0.952105    1.52512500   -0.09293600
Se   17.66431000   18.48786000   10.58612000      0.136403    0.51113200   -0.04839400
Se    3.73514000    4.83977000    2.09889000     -0.319424    0.74815000   -0.85275700
Se    3.24424000    6.39348000   11.25838000      0.431495    0.24372800    0.93055700
Se    5.37083000   10.44711000    2.60268000     -1.293286    0.11715000   -0.78108300
Se    5.34583000   12.96263000   11.06083000     -0.209357    1.23401400    0.15344700
Se    4.13560000   14.67268000    4.09485000     -0.029686    0.52711400   -0.20473400
Se    2.99335000   16.68333000   10.52726000      0.367119   -0.35166600   -0.11276300
Se    4.07006000   22.98183000   19.20829000      0.213660    0.31414400   -0.67470900
Se    6.65853000   20.63142000   10.26543000      0.551324    0.28211600    0.18807100
Se   10.85674000    6.29115000    3.99027000     -0.490474   -0.19626100   -0.98740100
Se    7.89359000    3.19904000    9.50531000     -0.081220    0.26475900   -0.40268700
Se   10.10537000   10.54527000   16.98457000      0.737926    0.63384100    0.72496200
Se    7.29703000   10.54006000    8.90134000     -0.496095    0.76932600   -0.11628600
Se   10.60629000   16.88947000    0.16920000      0.312895    0.54630700    0.41407200
Se   11.47356000   15.01386000   11.12710000      0.522694    1.57554600    1.03436800
Se   14.04463000    0.11178000    3.45356000     -0.309566    0.42110800   -1.66195100
Se   11.86037000   21.41891000   11.90211000      0.346755   -0.68381700   -0.37318700
Se   13.34623000    6.27368000    0.94632000     -0.003470    0.51949400    0.28181500
Se   18.29150000    7.08975000   12.10521000     -0.264755    0.24555700   -0.22626900
Se   15.71472000    8.42875000    0.15991000     -0.916118    0.30812900   -0.00013500
Se   15.13255000   10.55966000   13.23344000      0.681210   -1.05789700    0.33682300
Se   18.98985000   14.28303000    4.04640000     -0.714849    0.32586200   -0.24803800
Se   14.45166000   14.33802000    9.54481000      0.239232   -1.02085800   -0.14539900
Se   17.36930000   22.87866000    1.74909000     -0.975484    0.48024600    0.18765700
Se   14.06940000   19.85888000    9.69944000     -0.780385   -0.61776600   -0.67671800
Se   21.22988000    0.82792000    1.47977000     -0.237283   -0.09991100    0.30140400
Se   22.52904000    4.41687000   10.98313000      0.896392    1.59951900   -0.97125100
Se   20.11277000    6.02704000    1.75312000      0.419736    0.28132600   -0.70629800
Se   22.22427000   10.60792000   11.09464000     -0.595693   -0.70085900    0.20865700
Se   21.38950000   12.98983000   19.23562000      0.672142    0.24829900    0.88389600
Se    0.19651000   15.93797000   11.65620000     -0.440354    0.34683300    0.19718000
Se    1.27908000   20.96943000    1.77064000     -0.785375   -0.21295800    0.62968500
Se   20.42922000   20.96480000   14.25623000     -0.938169    0.11873900   -0.86361000
Se    4.42239000    5.02356000    8.45647000     -0.544043    0.16149600    0.03210600
Se    0.56763000    6.32387000   16.64627000     -0.271378   -0.27982900   -0.00974200
Se    4.46532000   10.89518000    8.62078000     -1.477437    0.90695300    0.46098300
Se    3.92439000    8.20314000   17.36314000     -0.372477    0.58311300    0.68740800
Se    4.36627000   18.54753000    7.97477000     -0.272017   -0.41795000   -0.92819800
Se   22.59735000   18.25770000   15.41255000      0.127213    0.46524900   -0.04478700
Se    3.57839000   21.91390000   11.90426000      0.279687    0.22480500   -0.13171900
Se    9.03047000    0.49894000   16.30123000     -1.455550   -0.22276000    1.04286100
Se    6.97954000    4.08714000    4.42418000     -1.004407   -0.52148900    0.68661700
Se    5.70110000    5.22279000   18.29401000     -0.847444   -0.57140900   -0.27493200
Se    6.34032000   10.82688000    5.29743000      0.987440   -1.13065500   -0.29187700
Se    4.32073000    6.62436000   15.50514000     -0.601049    1.13897200   -0.21366500
Se    6.31728000   16.56852000    9.80055000      0.125003   -0.78416000   -1.16202700
Se    7.00703000   16.45482000   18.28683000     -0.620958   -0.19948500    0.48282600
Se    7.82021000   18.72062000    7.30150000      1.028988   -0.19010700    0.86590000
Se    7.65121000   22.45732000    1.61362000      0.543568    0.42147800   -0.70273600
Se   15.10979000    1.44066000    8.40000000     -0.146850   -0.10792100    0.52016900
Se   12.53428000    4.14467000   16.09701000     -0.136566    0.38398100   -0.05386800
Se   13.47969000    8.01800000   10.66799000     -1.569863    0.06532700    0.58184300
Se   14.00612000   11.48823000   16.48366000     -1.071140    0.51733900    0.68247200
Se   13.49532000   15.16121000    6.39384000     -0.624926    0.11858800    0.67449300
Se   13.75725000   15.81879000   17.75234000     -0.109215    0.00162300   -0.62656000
Se   12.88666000   22.10038000    6.15619000     -1.302090   -0.21331700   -0.23317100
Se   17.98250000   21.10261000   17.76493000     -0.898283   -0.68621200   -0.75646300
Se   19.78585000    2.89415000    9.27667000     -0.434022    0.23957800    0.05558900
Se   19.72725000    3.43937000   17.78658000     -0.286357   -0.59180200    0.21803900
Se   17.91320000    9.86673000    8.75346000      0.682888   -0.29580700    0.12011200
Se   17.33691000   10.83782000   16.51692000     -0.321889   -0.37209900   -0.17431600
Se   15.45453000   16.31998000    9.87692000     -0.345761    0.44402700   -0.90176100
Se   18.13130000   15.10052000   15.69121000     -0.105092    0.06016100   -0.76125600
Se   18.66466000   18.82116000    8.22476000     -1.139439    0.16175500    0.35793300
Se   20.39346000   19.60539000    2.30740000     -0.322765    0.85563200   -0.06412100
Se    4.49794000    1.00800000    7.93138000      0.288765   -0.33058100   -0.07512600
Se    0.52983000    3.79314000   17.35312000     -0.312948    0.25616400   -0.14943100
Se    6.64222000    7.31318000   10.34225000      0.214147    0.27385800    0.33754600
Se    3.20237000    7.19506000    0.08881000     -0.300417    0.20774000   -0.20250100
Se    3.94404000   14.80931000    7.16977000     -0.996889   -0.27609500    0.21586000
Se    4.70640000   13.42575000   17.02019000     -0.239541    1.03336400   -0.43337600
Se    3.24327000   21.09414000    9.31940000      0.135178    0.01268100    0.75796300
Se   22.51931000   16.83453000   18.76907000      0.072327   -0.21267000    0.35436700
Se    8.74525000   22.96564000    8.78591000      0.764048    0.46532900   -0.35681600
Se   10.70337000    3.13161000    0.08141000      0.032532    0.52605500    1.26977600
Se   11.54326000    4.84944000   10.19351000      0.831710   -0.22627000   -0.26389700
Se    6.93752000    8.47217000   18.80876000     -0.522308    0.09045300   -0.57426500
Se   10.39376000   13.11749000    8.21151000     -0.888877    0.82377900   -0.62281600
Se    8.06179000   11.61331000   17.92647000      0.173499    0.55093000   -0.32919800
Se   10.46564000   21.20374000    8.58000000      0.725101    1.19375500   -0.47358200
Se   11.55676000   15.28797000   16.68116000      0.611214   -0.65215100   -0.15520800
Se   17.17722000   21.26335000    7.91615000      0.534858    0.39594900    0.21849800
Se   15.19519000    4.29269000   18.26299000      0.384962   -0.89607300    0.84903500
Se   15.35004000    5.58652000    9.03144000      0.432489   -0.33151600    0.52324600
Se   13.14714000    8.75934000   19.18399000     -0.206920    1.30079000    0.22312800
Se   16.29483000   11.87165000    9.18388000     -0.476970    1.16267600    0.82415000
Se   15.97549000   13.55540000   18.47453000      0.467651   -0.09471100    0.27383700
Se   15.14825000   18.64891000    6.17509000     -0.115147    0.21594200   -0.16310300
Se   16.70402000   19.26784000    1.12589000     -0.896533   -1.18245700   -0.14973600
Se   22.10347000   22.84844000    9.46100000     -0.407879   -0.47798000   -0.16278200
Se   22.79762000    1.33733000   15.24741000      0.005767   -0.64603500    0.18733700
Se   20.87795000    6.44450000    7.98976000     -0.851854    0.00502100   -0.17779900
Se   21.47096000    8.34377000   18.47314000      0.065717    0.42748700    0.04128400
Se   21.41842000    9.54852000    7.96864000     -0.223957    0.04855600   -0.69945200
Se   21.97166000   10.31319000   17.10248000     -0.103756   -0.50696800   -0.26760600
Se   21.09942000   16.08264000    6.18234000     -0.265221    0.02008000    0.39826700
Se   18.54484000   16.66584000   18.46059000      0.046701    0.00360800   -0.39755700
Se    2.37959000    1.71365000    9.38280000     -0.083489    0.03466000   -0.17184100
Se    3.89696000    3.08407000   15.70630000     -0.391582   -0.60684600    0.51535100
Se    1.20911000    8.21592000    7.34069000      0.740129    0.01376400    0.36254300
Se    1.81661000    8.93677000   15.69669000     -0.220703   -0.15888600    0.41749200
Se    1.80189000   16.49330000    6.91353000     -0.311339   -0.17680700    0.74954600
Se    1.28436000   12.47708000   16.38408000      0.028441    0.49215000    0.01818300
Se    0.56862000   18.67155000    5.98974000      0.301983   -0.66508500    0.62940700
Se    2.94031000   20.48420000   16.31963000      0.052521   -0.15455100   -0.42155300
Se    7.66518000    1.18086000    4.51453000     -0.269891    0.17186100    0.57180400
Se   12.69242000    0.88661000   18.74552000     -0.012589    1.73479900   -0.63612400
Se    7.43182000    6.59910000    6.76089000      0.790568    0.47130800    0.02779600
Se    7.19886000    7.25452000   14.62492000      1.117030    0.27442400    0.02291000
Se    7.03922000   14.03169000    6.22553000      0.096377   -0.32431300   -0.05410300
Se    8.41586000   17.22775000   14.92163000     -0.357289    1.18576100   -0.29669200
Se    5.07432000   19.79399000    5.96964000     -0.170025   -0.23777500    0.24005600
Se    8.53605000   15.09580000   15.57858000      0.164779   -1.82864500   -0.07223300
Se   15.11793000   21.54827000    5.48619000      0.708679   -0.56677100   -0.60411100
Se   14.76612000    1.76530000   16.58881000      1.160762    0.61092900    0.28218300
Se   12.20893000    6.96757000    6.59271000      0.550646    0.06387100    0.46374100
Se   11.00117000    7.93088000   16.12616000      0.533943   -0.56447900    0.58018100
Se   13.36064000   11.63818000    4.62038000      0.077404   -0.63779900   -0.65389100
Se   14.47304000   14.23066000   13.55787000      0.239902    0.13618400   -0.12727300
Se    9.00408000   16.00249000    5.54052000      0.616230   -1.11559800   -1.96745400
Se   13.60977000   20.57890000   18.97766000      0.218415   -1.72068100    1.16402300
Se   20.71537000    2.05685000    5.29475000     -0.549092   -1.18780500    1.59050200
Se   18.32022000    0.41910000   17.34158000      0.380601    0.14636200   -0.32402900
Se   17.53965000    4.86393000    6.42417000     -1.435441    0.13653300    0.50343700
Se   18.25731000    6.94027000   15.48676000      0.188246    0.35509000    0.18078700
Se   20.63740000    9.34534000    3.72722000      1.375992    0.77497800   -0.40580700
Se   16.98673000   13.18143000   12.88110000     -0.916733   -0.67690200    0.03864500
Se   17.50886000   19.93298000    4.66333000      0.361582    1.13350800    1.59883100
Se   17.93915000   22.93176000   13.50603000     -1.500041   -0.29013500   -0.72737100
Se    3.26958000    6.79192000    6.68581000     -0.144231    0.72678300    0.52487300
Se    3.79630000    4.99110000   13.24723000     -0.085228   -0.63313600   -0.97432100
Se    1.65419000    8.46723000    3.63631000      0.048856   -0.35850200   -0.01498800
Se    5.22065000   10.85292000   15.65497000     -0.190707   -0.25725800   -0.57301900
Se    5.00326000   12.42686000    6.35181000     -0.083466    0.86813700    1.01042600
Se    3.10261000   17.21241000   18.62822000      0.282763    0.15681300   -0.21039500
Se    1.61352000   21.79492000    6.10629000      0.399037   -0.29224900   -0.09018000
Se    4.60582000    0.67027000   14.32111000      0.204396   -0.37896100    0.13396500
Se   11.19753000    2.81036000    7.08740000     -0.090206   -0.31367600   -0.66550300
Se    8.74670000    4.01219000   16.08440000      0.101763   -0.33142600    0.27778000
Se   10.48166000   10.12883000    6.79116000     -0.202758   -0.01765400   -0.58241200
Se    8.71041000   10.48729000   14.34822000      0.124927    0.56524700    0.80597400
Se    8.54703000   15.00890000    9.15958000     -0.124350    0.59206600    0.15504700
Se   12.04060000   17.93223000   15.83721000     -0.279797    0.25571300    0.24363800
Se    8.77442000   19.51388000    3.41441000      1.006678   -0.17311800   -1.08513800
Se   10.73240000   20.94117000   16.79727000      0.241542    0.62418300    0.14365100
Se   14.58368000    4.30104000    5.33056000     -0.868935   -1.14159600    0.01649800
Se   18.42626000    3.81739000   14.68477000     -0.048585   -0.54567400    0.15128800
Se   14.40511000    9.46883000    7.22963000     -0.469791   -0.64593000   -0.08451500
Se   17.46595000    9.66446000   13.81121000     -0.957478   -0.18818000   -0.26303100
Se   16.91877000   12.73573000    5.52751000      0.059846   -0.85084500   -0.01817200
Se   16.32150000   19.20514000   16.03768000     -0.872972   -0.28034900   -1.10684000
Se   15.93897000    0.86137000    5.26817000      0.170193    0.32571100   -0.08530200
Se   18.59058000    3.42568000   12.30747000      0.024172   -0.20573600   -0.33789800
Se   22.84919000    3.93170000    7.63454000      0.672629    0.18472600    0.35419700
Se   22.47827000    3.45672000   14.32185000     -0.324922    0.46828100   -0.26154800
Se   20.10034000   12.40062000    7.14483000      0.151760    0.89477800    0.28951100
Se   21.14555000   12.73819000   15.81919000     -0.329308   -0.20023400   -0.09694300
Se   22.74445000   12.94897000    6.47745000     -0.769137   -0.82538700   -0.44145800
Se   19.03144000   18.36731000   14.24853000      0.391600   -0.11408600   -0.03609800
Se   21.03374000   18.76885000    8.20962000      0.079975    0.90919100   -0.72686800
Se   21.89628000   21.12478000   17.74228000      0.576261   -0.93703200   -0.04299100
Se    3.68264000    3.48449000    5.26963000     -1.377778    0.11758800    0.04836800
Se    7.44873000    1.26166000   18.18223000      0.774222    0.30822000   -0.66909500
Se    1.13422000    4.25420000    0.36651000      1.084075    0.62473200    0.06865300
Se    3.16354000    9.13029000   10.43528000      0.617151   -0.12805200   -0.10837500
Se    0.73573000   12.15149000    3.18497000      0.507457   -0.67675900   -1.67329000
Se    2.20124000   16.54105000   14.84659000      0.720871   -0.34673400   -0.02216700
Se    3.76269000   15.86069000    1.27297000      0.168706    0.12707200    0.13194100
Se    5.27403000   18.64573000   13.35119000     -0.503180   -0.23137700    0.24780900
Se   10.44804000    0.46245000    3.23406000      0.475831   -0.75261500   -0.22912100
Se   11.25748000    0.99270000   13.95087000      0.544901   -0.54315700   -1.26448200
Se    9.77431000    8.65791000    3.42731000      0.981289    0.72317200    0.87190800
Se    7.34783000    8.97193000   16.33098000     -0.530243   -0.18961100    0.87616200
Se    9.09224000   12.12782000    3.75805000      0.654738    0.80096200   -0.20716300
Se    9.25568000   12.93750000   12.25879000      0.465512   -0.61663300   -0.51221400
Se    9.64173000   20.59299000    1.28205000     -0.766937   -0.35620600    0.75794800
Se   10.69498000   18.84766000   14.07099000      0.167904   -0.15762400   -0.30288100
Se   18.89553000   22.89797000    8.32832000     -0.654333   -0.79664600   -0.56098800
Se   14.81549000    2.49133000   13.52207000     -1.674246    0.16264500   -0.30793000
Se   15.45643000    7.08717000    3.89245000      0.727570   -0.13447500   -0.49043200
Se   14.43221000    5.55007000   15.12359000     -0.278264   -0.09612600    0.07774100
Se   15.62775000   11.79624000    1.87456000     -0.201062   -0.11970100    0.70226000
Se   16.47248000   16.98561000   12.46829000      1.179030   -0.04623000   -0.38768000
Se   16.09301000   16.41625000    3.90125000     -0.418004    0.33596800   -1.06175900
Se   14.77345000   19.62124000   14.18156000      0.380656    0.08459400    0.63495400
Se   22.49788000   22.71963000    5.34787000      0.215949   -0.42064100   -0.49957000
Se   21.22409000    0.35155000   12.90824000     -0.898468   -0.47797700    1.41008900
Se   20.41179000    3.56612000    3.67383000     -0.635862    1.47546100   -1.69610200
Se   20.56503000    9.43273000   14.48839000     -0.163302    0.00691400   -0.15042500
Se    2.19624000   12.16289000    5.95572000      0.126402    0.13854200   -0.70309300
Se   21.61505000   15.12869000   15.49802000     -0.713810    0.30166200    0.28335600
Se   21.67333000   18.68977000    4.28932000     -0.655658    0.92367600    0.50844900
Se   21.61060000   19.00242000   11.32614000      0.514139   -0.04924000    0.73040000
Se    0.07842000    5.14168000    5.59044000      0.239045   -0.44215600   -0.83117700
Se   20.39419000    5.41224000   14.55403000      0.443871    0.49784500    0.58541800
Se    0.27112000    9.73566000    2.04711000      0.002031    0.83732000    0.65073300
Se    1.17654000   11.54674000   13.59421000      1.038765   -0.27376300   -0.44220000
Se    1.92003000   13.46756000    1.30145000     -0.226358   -0.37013400    0.52486000
Se    1.63695000   21.42636000   13.08598000     -0.311710   -0.24037500   -0.22273800
Se    4.09101000    0.05437000    3.29366000      0.018167   -0.13700700    0.31214300
Se    5.52192000   18.95868000   15.68035000     -0.015176   -0.32623900    0.19269600
Se    9.28460000    5.38310000    7.72609000     -0.571983    0.41986600   -0.02420700
Se    7.49835000    4.38303000   12.78770000     -0.064440    0.74612000   -0.18567800
Se    5.81123000    7.46483000    4.43486000     -0.864059    0.53311700    0.28043700
Se    7.88679000   10.87568000   12.22105000     -0.006012    0.56960500   -0.94749500
Se    7.46602000   15.89198000    2.50381000     -0.303672   -0.31430400   -0.15952000
Se   11.83875000   15.05863000   13.74818000      0.358817   -0.79323500   -0.39783800
Se    7.02169000   22.04206000    5.19436000     -0.107047   -0.31476100    0.59028500
Se    7.97553000   21.89883000   13.65210000      0.003468   -0.27943200    0.30712300
Se   12.41501000    1.86373000    3.90832000      0.282216   -0.20292900   -0.47040900
Se    9.95221000    1.59087000   12.05836000     -0.126470    0.30749700    0.00884400
Se   14.15346000    9.84675000    2.86495000     -0.114729    1.56221900    0.61031900
Se   12.12318000   10.22509000   13.21711000     -0.434714    0.90600500    0.40842000
Se   12.40561000   14.81944000    3.33015000     -1.132669    0.90633600   -0.18768200
Se   14.21722000   17.33785000   13.10906000     -1.133451    0.60439100    0.18706100
Se   12.71677000   19.26771000    3.15449000      0.048557    0.07014600   -0.95079000
Se   13.75875000    0.10138000   15.39557000     -0.026847   -1.10421500   -1.10578700
Se   17.55009000    4.81797000    1.04925000      0.247172    0.10664900   -0.38372800
Se   16.06711000    6.18625000   12.45585000     -0.077860    0.63408200    0.05627300
Se   18.45490000    8.83560000    4.05191000     -1.901725    0.18101600    0.40583900
Se   20.95382000   13.56642000   12.89068000     -1.008466   -0.42612500    0.11001200
Se   21.76300000   15.37367000    2.95201000      0.793711   -0.96851600   -0.40066300
Se   19.52291000   15.57697000    9.96413000     -1.637298    0.94503100   -0.48680600
Se   19.54733000   21.82115000    3.20321000      0.766904   -0.85401400    0.18548100
Se   16.59187000   22.46546000   11.39329000      0.402650    0.10935500    0.87252600
