384
23.00800000 23.00800000 19.32000000
Ge    5.83225000    4.71995000   10.56382000      0.024890    0.07568300    0.34341300
Ge    5.39772000    7.43733000    1.84678000     -0.727932   -0.13689100    0.56692500
Ge    1.38611000   11.22436000    8.10007000      0.207133   -0.49377600   -0.75273600
Ge    5.26000000   11.09064000   18.16443000     -0.254512    0.16103100    0.29940000
Ge    4.48298000   14.90094000   10.11783000      0.237395   -0.03667800   -1.78205500
Ge    7.89517000   17.95454000    1.06161000      0.542934   -0.20998800   -0.16167600
Ge    8.25624000   19.54568000    9.00743000      1.403866    1.11102000    1.82748000
Ge    3.97543000    3.30708000   18.60034000      0.512206   -0.71751000    0.15441600
Ge    9.13291000    5.80124000   10.65939000     -0.666114    0.23295000    0.65712000
Ge   11.21958000    5.35620000    1.27259000     -1.108804    2.50396500    0.86544100
Ge   11.23814000   13.05957000   10.42471000      0.694361    0.11015100   -0.42835300
Ge   11.82021000   12.59323000   17.49662000      0.655033    0.79277400    0.44252500
Ge    9.62187000   17.12697000    7.52805000     -0.526048   -1.03523900   -0.78051800
Ge   13.77240000   15.65656000    0.92825000     -0.756817    0.17589000    0.23266700
Ge   10.82869000    2.14769000    9.53516000     -0.142695   -0.30122600    0.27831200
Ge   15.98456000   21.56092000    0.01983000      0.626294   -1.45903000   -0.86218900
Ge   19.29632000    5.16825000   10.50665000      0.316797    0.77752900   -0.31550700
Ge   18.58177000    8.95689000   17.44395000      0.337163   -0.43739300    0.15419300
Ge   21.44264000   14.09481000   10.51102000     -0.638566    0.22226500   -0.20442900
Ge   16.59997000   10.95216000   19.02847000     -0.215035   -0.89140900    0.01388100
Ge   14.07359000   17.24871000    8.05974000     -1.192386    0.55793800   -0.79526400
Ge   18.54601000   13.63170000    1.58793000      0.358535    1.09821500   -0.01807300
Ge   19.93744000    0.71452000   10.59625000      0.265733   -0.16486800   -0.39044200
Ge   17.59749000    2.20302000   18.78190000     -0.234138   -0.08519700    0.22883900
Ge    0.26406000    6.92355000    9.51507000     -0.321394   -0.41121500    0.45294400
Ge   21.68990000    3.03623000    0.04536000      0.474514    0.53616300    0.95342200
Ge    1.47368000   11.34482000   11.07068000     -0.500048   -0.25978800    0.86072000
Ge    0.51455000   11.37429000   18.83666000     -0.590368    0.03429000    0.27906100
Ge   22.82635000   14.60335000    7.96055000      0.022998    0.29979900   -0.76755800
Ge    0.75814000   14.96767000   16.81288000     -0.033135    1.78081000   -0.02041900
Ge   20.25315000   20.70865000    9.52546000      0.556047   -0.48392600    1.03174700
Ge    3.32572000   20.70698000    0.07192000     -0.693774    0.66175400   -0.46614500
Ge    5.75478000    8.62203000    8.21460000      0.474298    0.37038100    0.33160600
Ge    0.47653000    6.48633000   19.18876000      0.501707    0.10541000    1.06380400
Ge   22.15471000    7.81167000    5.89547000     -0.389828    0.21640700   -0.19671900
Ge    2.77427000   13.14904000   14.88483000      1.165737    0.74152500    0.47487900
Ge    5.22710000   16.78320000    3.66762000     -0.029911   -0.20217400   -0.21871900
Ge    1.34034000   19.76325000   18.06998000      0.067577   -0.60954200   -0.18072800
Ge    4.55253000   19.12720000   10.41578000     -0.535534   -0.39562800   -0.10058800
Ge    3.43733000    0.04057000   16.43607000     -0.761693   -0.72004400   -1.23293200
Ge    8.21594000    3.13861000    6.34402000     -0.147201   -0.11018500    0.89365000
Ge    8.22821000    3.96950000   19.01417000     -0.656792    0.09027100   -0.02376100
Ge    6.85565000   13.33726000    3.58736000     -0.160960   -1.12672700   -0.19187000
Ge    7.91329000    8.00585000    1.86670000      0.244202    2.09305700    0.64486500
Ge    6.16246000   16.47813000    6.67349000     -0.966074   -0.31654700    0.77445000
Ge    9.11906000   14.92679000   17.86301000     -0.077509   -0.21071700    0.62959800
Ge    9.76903000    0.25024000    6.36439000      0.394701   -0.43668800   -0.84808600
Ge   10.38986000   21.17489000   14.06033000     -0.355630    0.90731700   -0.50695000
Ge   13.02488000    6.19120000    8.89751000      0.587443    0.77999500    0.72382900
Ge   14.09190000    6.38871000   17.78038000      0.222288    0.44830000    0.18339400
Ge   12.60471000    9.80239000    9.13327000      0.333942    0.48490200   -0.47278200
Ge   16.03359000   13.41806000   15.57492000     -0.598798   -0.38269400   -0.22629700
Ge   14.05734000   17.29237000    4.61119000     -1.183769    0.12777500   -0.13825000
Ge   14.11903000   18.51483000    1.53601000     -0.243511   -0.82943200   -0.45222700
Ge   14.69839000   21.64869000    8.43523000     -0.436717    0.01534700   -0.27997000
Ge   16.80314000    1.87814000   14.89400000     -1.341712   -0.60525000   -0.66869800
Ge   20.13092000    4.06738000    7.04550000     -0.225337   -0.07786400   -0.36064600
Ge   20.25414000    6.01031000   17.07215000      0.231985    0.03701100    2.01879900
Ge   16.59287000   10.75668000    7.06815000     -0.918366   -0.29841700    1.02672200
Ge   19.63829000   14.87512000   17.44925000      0.126761    0.55911400    0.49536800
Ge   19.02782000   16.73699000    5.01994000      0.009001   -0.13616000   -0.31682700
Ge   20.03141000   18.15656000   16.37951000      0.115449    0.07403300   -0.56658500
Ge    0.09975000    2.49886000    4.68217000     -0.295820   -0.37313600   -0.45360900
Ge   19.53195000   22.27034000    0.29785000     -0.497199   -0.58939400   -0.11915500
Ge    5.22615000    3.11062000    6.92891000      0.168587    0.38679700    0.32176500
Ge    2.27092000    4.82961000   15.29490000      0.530560    0.24152600   -0.23559300
Ge    2.15495000    5.59327000    4.45160000      0.305425    0.99300200   -0.03510700
Ge    3.30601000    9.84945000   14.37704000     -0.939770   -0.69906800   -0.78432900
Ge    1.87002000   15.51923000    4.54560000     -0.667013   -0.41781100   -0.10372900
Ge    1.21537000   18.13848000   13.16833000      0.025326    0.86427600   -1.57131600
Ge    1.32952000    2.23173000    7.15251000      0.457460   -0.07808400   -0.46302000
Ge    4.78123000   16.38026000   17.00446000     -0.598675   -0.51179200   -0.32070800
Ge    9.28813000    2.91180000    2.91547000      0.358994   -0.07182300    0.15268900
Ge   10.77605000    2.58305000   16.18240000     -0.528172   -1.98682400    0.16327600
Ge    8.43079000    9.13562000    5.49746000     -0.378526   -0.78510200    0.28958200
Ge    9.63744000    8.38167000   14.27531000      0.105431   -0.60873100    0.16417300
Ge   10.99821000   14.07797000    5.67315000      0.190496    0.17328800   -0.72085500
Ge   10.94184000   12.33135000   14.22030000      0.062637    0.08826800    0.90052400
Ge    5.59562000   21.19153000    2.45476000      1.132968    0.43052300    0.87041300
Ge    9.49581000   18.53182000   17.25119000      0.823102   -0.27160000    0.14102700
Ge   13.64554000    1.84225000    6.42964000      0.876236   -1.75665700   -0.21754000
Ge   10.63948000    5.42523000   15.05915000     -0.646160    0.28952400   -0.41634000
Ge   15.55604000    6.24015000    6.33169000     -0.938210    0.44010600    0.18467500
Ge   13.59295000    9.58575000   14.99815000     -0.499119   -0.15651700   -0.56339600
Ge   14.64733000   14.14374000    4.24228000     -0.355340   -0.43041800    0.09177600
Ge   16.03659000   16.57717000   15.11094000     -1.088252    0.78029600   -0.08450100
Ge   10.50687000   17.60901000    2.89978000      0.213400   -0.82309600   -0.04815400
Ge   12.83354000   21.98749000   17.14204000      0.680810    1.06324400    0.55613200
Ge   17.46333000    5.66812000    4.01113000     -0.703653   -0.70460300    0.09298100
Ge   21.11798000    2.61587000   12.13850000      0.363392    0.79310200   -0.90879200
Ge   19.29991000    8.40133000    7.40422000     -0.419387    0.46488500   -0.36656400
Ge   19.11158000   11.67308000   14.38777000     -0.642303    1.83807600   -0.10165800
Ge   22.70806000   14.94397000    0.94567000      0.833054   -1.23614400   -1.64891400
Ge   18.58055000   14.78593000   12.83526000     -1.733751    0.74255800   -0.20956000
Ge   20.23709000   20.45248000    5.83797000      0.386201   -0.24188600   -0.82068200
Ge   22.78523000   20.86772000   15.35935000     -0.503752    0.96899200   -0.12896500
Ge    5.10777000    2.92564000    2.99385000     -0.314541    0.16420500   -0.03803900
Ge    6.35276000    5.05886000   15.78497000     -1.144921   -0.96493600    0.57467900
Ge    4.14612000    9.43601000    4.74768000     -0.641018    1.18326700   -0.37413500
Ge    4.89014000    8.10499000   12.33616000     -0.860122   -0.09085200    0.17714200
Ge    6.07899000   14.51070000    0.64207000     -0.700207   -0.06653500   -1.32312800
Ge    3.31479000   15.43840000   12.75710000     -0.238599   -0.51225400    1.34679600
Ge    4.25969000   22.20922000    5.69801000      0.353868    0.11566800    1.41065800
Ge    7.59672000   19.75844000   12.37950000     -0.828578   -0.38605500    0.70452600
Ge   12.04196000    4.65635000    5.64723000     -0.701484    0.40775900   -0.92258500
Ge    7.60629000    1.77024000   13.39000000     -0.129059   -0.11374700   -0.94844700
Ge   11.90990000   10.54008000    2.21217000      0.271204    0.42634700   -0.71632800
Ge   13.17853000    7.01775000   13.71232000     -0.163417    0.83205400    0.11442500
Ge   10.12613000   13.67451000    1.91221000      0.552329    1.09773700   -1.61944300
Ge    8.85386000   16.07621000   11.76956000      0.273003   -1.45006400    0.12573600
Ge   11.94256000   22.50329000    1.19057000      0.440191    0.10078600    0.05632300
Ge   12.18714000   18.84983000   11.50721000     -0.393634   -0.82722000    0.64578000
Ge   21.15293000    0.64292000   17.93918000      0.724446   -0.48413900   -0.84617800
Ge   14.05790000    4.62624000   11.39082000      0.810466   -0.29474600    0.21850400
Ge   17.66319000    8.31521000    1.67421000     -0.157381   -1.39935500    0.35023700
Ge   16.27658000    7.59924000   10.23487000     -0.505362    1.76850500   -1.32856300
Ge   17.97681000   11.65614000    3.48119000     -0.292676   -0.78292300    0.32800300
Ge   19.54670000   14.83432000    7.44131000     -0.529349    0.42131100   -0.00802000
Ge   18.06966000   18.48465000    2.90390000      0.068999    0.12906000   -0.18121300
Ge   15.86831000   20.08614000   11.62627000     -0.066418   -0.11271100    0.45269800
Ge    0.63802000    0.27618000    2.37999000     -0.428464   -0.08155900   -0.00979100
Ge    0.53205000    0.43341000   11.40557000     -0.253491   -0.13230100    0.12123300
Ge   19.73634000    6.38675000    4.52585000      0.849881   -0.14868700   -0.87596700
Ge   22.63316000    9.60638000   13.45387000      0.474331   -0.22902300    0.38714400
Ge   21.32006000   12.86220000    3.47939000      0.061852    0.06804700   -0.25174800
Ge   22.62054000   17.86427000   10.10726000      0.423478    0.60096400   -0.90662100
Ge    2.90830000   20.51526000    3.77806000     -0.082891   -0.08911200    0.26742200
Ge   20.39660000   17.08607000   12.22833000     -0.594655   -0.68601700    0.51891300
Se    0.50069000    1.39999000   18.69251000      0.024661   -0.77935400   -0.00079200
Se    1.71966000    3.15592000   10.81697000     -0.891339    0.41667100    0.34042300
Se   22.58223000    6.52448000    2.52466000      0.398397   -0.14630300   -0.02672700
Se   22.75894000    7.23640000   12.69841000     -0.005158    0.29371900   -0.07895600
Se    3.34724000   10.97956000    0.82150000      0.148593    0.00450500   -1.74383100
Se    1.58768000   13.20720000    9.61323000      0.489358    0.57392300    0.03283900
Se    2.08447000   17.97803000    4.09961000      0.052661    0.50106600   -0.15583700
Se    1.19755000   19.86611000    9.76082000      0.252720    0.37689300   -0.39747700
Se    7.43682000    2.14592000    1.44996000     -0.462746    0.36726800   -0.07664400
Se    6.42241000    1.33291000   10.55459000      0.230969    0.48403100    1.05760200
Se    7.77626000    5.76599000    2.61243000     -0.205220   -1.66807000   -0.35740900
Se   10.42597000    7.31837000   12.30838000      0.254917    0.19451700   -0.37914400
Se    8.33130000   11.76922000    0.94606000      0.113972   -0.04145300   -0.37068900
Se    5.85945000   15.00121000   12.48875000     -0.145929   -0.16668100    0.55336200
Se    4.62394000   19.19830000    1.47753000      0.287265   -0.15100300    0.06350600
Se    9.42723000   18.23203000   10.99557000      0.005642    1.74242900   -0.71844400
Se   13.78909000    3.64519000    0.88008000      0.707022    0.20888600    0.09659200
Se   13.22963000    0.41784000    9.50686000     -0.792457    0.15498900    0.69371900
Se    9.48326000    7.26462000    0.34055000      1.351172   -1.10266800   -1.49053200
Se    9.73704000    9.82942000    8.83855000     -0.069735   -0.02436600   -0.07024400
Se   12.47473000   12.83837000    0.78793000     -0.524531   -0.48467000   -0.28221100
Se   13.49448000   11.83940000   10.54592000     -0.589321   -0.23937700   -0.41714000
Se   16.22075000   15.21794000    1.10274000     -0.080865   -0.72514300    0.19784500
Se   11.48202000   18.27105000    8.29654000      1.345707    0.04041400   -0.00669600
Se   16.92329000    3.47467000    3.07909000     -0.118850    0.66934600   -1.02692100
Se   14.87845000    2.25714000   11.00476000     -0.088808    0.62909400    1.04526100
Se   17.31794000    6.46514000   17.54363000      0.310481    0.28034900    0.33180200
Se   21.27452000    7.64842000   10.87299000     -0.157205   -0.21598700    0.32269200
Se   18.75107000   10.23466000    0.83917000      0.848517    1.08374400   -0.78306000
Se   17.46621000   16.22426000    6.82894000      0.593538   -0.86529300   -0.12030500
Se   19.46897000   16.40981000    1.54306000     -0.391533   -0.30184500   -1.30226200
Se   17.75305000   18.52415000   10.67937000     -0.098887   -0.28553600    0.36054600
Se    3.73166000    4.94845000    2.07222000      0.354523   -0.16706600    0.19476100
Se    3.28561000    6.37263000   11.25423000     -0.417344    0.85974500   -0.39659100
Se    4.95813000   10.34513000    2.24221000      0.888413   -0.67728900    1.14641200
Se    5.32487000   12.92425000   11.17196000      0.153434    0.09750400    0.29186200
Se    4.13491000   14.57999000    4.17692000      0.175831    0.50523700   -0.52660700
Se    2.86658000   16.57373000   10.59930000      0.078704    0.64241100   -0.04826300
Se    4.15197000   22.94353000   18.69181000      0.663943    0.17441900    1.36878300
Se    6.46932000   20.66217000   10.22967000      0.905891    0.92004500   -0.09543800
Se   10.67804000    6.45847000    3.68046000      0.548531   -0.23900200    0.55636500
Se    7.93367000    2.97117000    9.75874000     -0.418717    0.02179400   -0.91693800
Se   10.32321000   10.84840000   16.89960000     -0.346679   -0.73437600    0.46573500
Se    7.27351000   10.47977000    9.23091000      0.301952   -0.22181000   -1.02224700
Se   10.55607000   16.93090000    0.17465000     -1.169577    0.61121100    0.25937700
Se   11.71312000   15.42127000   11.40341000     -0.466687   -0.25901800   -0.64112900
Se   14.08385000    0.09141000    3.50225000     -0.070031   -0.30021200   -1.34830100
Se   11.89210000   21.19610000   12.02671000      0.060695    0.14905700    0.20199200
Se   13.34737000    6.43077000    1.03888000      0.028766    0.04361700    0.08614700
Se   18.43834000    7.41846000   12.03977000     -0.460965   -0.14763300    0.17702100
Se   15.56415000    8.22751000    0.11401000     -0.321461    0.73137100    0.27190400
Se   15.35269000   10.21546000   13.26776000     -2.099963    0.82283000   -1.32196800
Se   19.00112000   14.12548000    4.06790000      0.001803    0.24641100   -0.24558500
Se   14.55432000   14.07304000    9.62133000      0.136371    0.33567600   -0.26111800
Se   17.11256000   22.98602000    1.43847000      0.434119    1.00824800    0.43893500
Se   13.87195000   19.60536000    9.91829000      1.115568    0.01271000   -0.59556900
Se   20.96446000    0.76233000    1.75371000      0.838293    0.59324400    0.32860200
Se   22.67394000    4.76468000   10.89213000      0.147602   -0.96126200    0.39924600
Se   20.29285000    6.09854000    1.92423000     -0.502120    0.28542600    0.21239300
Se   22.18863000   10.62719000   11.25576000     -0.123435    0.29804300   -0.80226200
Se   21.35819000   12.99570000    0.04475000      0.261185    0.08669100    0.47499800
Se    0.11688000   15.92001000   11.42670000     -0.837104   -0.83844300    0.72203300
Se    1.27017000   20.77734000    1.97117000     -0.479113    0.72678800   -0.28851700
Se   20.54533000   20.75037000   14.08458000     -0.594441    0.25742300    0.38402100
Se    4.43249000    5.04319000    8.35676000      0.137542   -0.44185600   -0.21883900
Se    0.45230000    6.21577000   16.79451000     -0.081105   -0.04140200   -1.03245600
Se    4.31439000   10.93186000    8.95528000     -0.105747    0.01855800   -0.48166400
Se    3.89849000    8.31020000   17.59403000     -0.121658   -0.04995000   -0.14679000
Se    4.43996000   18.38040000    7.92797000      0.132863    0.21213500   -0.93499900
Se   22.85195000   18.47818000   15.12294000     -1.121312   -0.81753900    1.45952000
Se    3.71369000   22.00719000   12.01039000      0.156142    0.27215300    0.11796200
Se    8.82214000    0.47025000   16.56007000      1.588962   -1.08159600   -1.66081500
Se    6.99918000    4.20708000    4.38930000     -0.482059    0.89978800    0.16519200
Se    5.66910000    5.03398000   18.37577000      1.080503    0.73192200    0.20269300
Se    6.42020000   10.77817000    5.19805000     -0.493933    0.18316300    0.38245400
Se    4.20367000    6.81421000   15.56689000     -0.561028   -0.01675500   -0.03101200
Se    6.27461000   16.51261000    9.57314000      0.374058    0.29243700   -0.81397800
Se    6.92591000   16.58099000   18.21852000      0.391881   -0.56297900    0.71741700
Se    7.80196000   18.70217000    6.95899000     -0.146851   -0.49939800   -1.66237400
Se    7.57083000   22.21339000    1.28857000      0.115979    0.02018500   -0.04240900
Se   15.26658000    1.24098000    8.28402000     -0.032587    0.36540300   -0.44697400
Se   12.65577000    4.09372000   15.75772000     -0.216724    0.06123100    0.37590100
Se   13.31006000    8.06466000   10.70677000      0.268451   -0.60665000   -0.53360800
Se   13.91093000   11.44111000   16.68465000     -0.204375   -0.02521900   -0.01079400
Se   13.42522000   15.39010000    6.40638000     -0.043734   -0.38570200   -0.22204500
Se   13.94862000   15.89619000   17.80670000     -0.431488   -0.16907200   -0.78611700
Se   12.69439000   22.27133000    6.16708000     -0.057438   -0.14457600    0.65758000
Se   18.04577000   20.79432000   17.80202000     -0.374621    0.81283000   -0.20302200
Se   19.80854000    2.99283000    9.20812000     -0.709670   -0.33496600    0.35204500
Se   19.72291000    3.13041000   17.73227000      0.154482   -0.08662900   -0.62350800
Se   18.01952000    9.93265000    9.04298000      0.003648    0.39667400   -0.56574300
Se   17.18161000   11.05456000   16.18443000      0.461786   -0.64480900    0.49956600
Se   15.50021000   16.38677000    9.63573000      0.311570   -0.73015300    0.82888000
Se   17.97887000   15.20182000   15.40479000      1.547584   -0.65516200    0.12910200
Se   18.58451000   18.96354000    8.30902000     -0.150332   -0.32522700   -0.03627200
Se   20.58585000   19.97803000    2.07368000      0.569951   -1.47838800   -0.73518200
Se    4.60526000    0.68291000    7.91452000      0.412849   -0.09059700   -0.86111100
Se    0.66425000    3.79484000   17.42789000     -0.987513   -0.63804100   -0.14184000
Se    6.39062000    7.44592000   10.55685000      0.902244   -0.57327500   -0.86676300
Se    2.87887000    7.36973000    0.16522000      0.097324    0.55469600   -0.06158600
Se    3.78026000   14.94808000    7.46131000      1.466890   -0.67052800    0.57174400
Se    4.85929000   13.30441000   16.87476000     -0.086691    0.46009700    0.09336000
Se    3.36657000   21.11956000    9.35045000     -0.923828   -0.33277800    0.91478100
Se   22.70281000   16.83148000   18.91096000      0.067722   -0.33342300   -0.32501500
Se    8.91902000    0.23446000    8.62219000     -0.311687    0.70457500    1.07302700
Se   10.71349000    3.18492000    0.68248000     -0.041233   -0.59200800   -0.49656700
Se   11.56354000    4.77834000   10.31587000      0.317710   -0.55557300   -0.08745600
Se    6.85297000    8.55896000   18.64246000     -0.791219   -0.88399000    0.54013100
Se   10.20868000   13.50016000    8.23533000      0.251011    0.05995800    0.62144600
Se    7.88212000   11.37809000   17.84050000      0.668370    1.23350100    0.32205400
Se   10.31906000   21.38143000    8.61832000     -0.220076   -1.02290100   -0.22872300
Se   11.57411000   15.43555000   16.60622000      0.796466   -0.99200100    0.76769500
Se   17.28481000   20.85565000    7.63821000      0.175109    0.21788400    0.68748700
Se   15.25135000    4.12802000   18.39962000      0.041603    0.07856900    0.17846300
Se   15.49534000    5.58470000    8.93140000     -1.200271   -1.20418100    0.23627500
Se   12.58657000    8.97045000    0.10631000      0.085117   -0.70598600    0.16413900
Se   16.02297000   12.02848000    9.25581000      0.545728    0.09822600    0.15514200
Se   16.04963000   13.23192000   18.46847000      0.197565    1.19433800   -0.05732500
Se   15.25422000   18.59475000    6.35628000      0.252055    0.09199400    0.30567200
Se   16.52435000   19.07541000    0.91958000      0.212978    0.70409500   -0.18859700
Se   21.88654000   22.67971000    9.26032000      0.423022    0.54669300    0.44167800
Se   22.84050000    1.13200000   15.12057000     -0.550262    0.63543600   -0.39133500
Se   20.80837000    6.37270000    7.78587000      0.316219    0.58108200    0.70956800
Se   21.32724000    8.50537000   18.31220000     -0.684084   -0.39643500   -0.13578300
Se   21.42897000    9.56255000    7.77870000      0.079908    0.02366100   -0.21343600
Se   21.99452000   10.33652000   17.03367000      0.041602    0.00592800    0.03516200
Se   21.28759000   16.02270000    6.22996000     -0.213132    0.26072700    0.33672600
Se   18.27031000   16.66837000   18.68561000      0.149449    0.85361400    0.18033200
Se    2.56865000    1.46726000    9.18943000     -0.537972    0.18813100   -0.11656000
Se    4.15213000    3.19385000   16.07017000     -0.580742   -0.32118700   -0.49601100
Se    1.21199000    8.10741000    7.38059000     -0.614960    0.95581400   -0.01012000
Se    1.32415000    8.87053000   15.41917000     -0.151558    0.22277500   -0.07944200
Se    1.92750000   16.37312000    6.98889000     -1.198828   -0.29718400    0.44617100
Se    1.09241000   12.54294000   16.65865000     -0.054151   -0.41585500   -0.24135900
Se    0.69057000   18.61197000    6.05871000     -0.197159   -0.14276500   -0.39668800
Se    3.11099000   20.13404000   16.27630000     -0.404801    0.92524300    0.01156500
Se    7.49773000    1.43359000    4.52676000     -0.593164   -0.89876100    0.15349400
Se   12.37281000    1.32326000   18.62761000      0.049028   -1.50512400   -0.38384900
Se    7.66968000    6.51173000    6.51144000     -0.260430    1.38479100   -0.15550800
Se    7.36731000    7.10275000   14.81726000      0.973309    0.72425100   -1.00376800
Se    7.11696000   13.82248000    5.94189000      0.283696    0.58635400    1.16220400
Se    8.28759000   17.48655000   15.04984000     -0.288863   -0.72726400    0.06801600
Se    5.30325000   19.86456000    5.87425000     -0.451097    0.11858700    0.42130500
Se    8.71060000   14.96662000   15.42303000     -0.128773    0.61401200   -0.12948900
Se   15.22763000   21.32091000    5.72967000     -0.724994    0.90027500   -0.35890600
Se   14.83803000    1.87856000   16.42986000     -0.050024   -0.70218900    0.42775200
Se   12.18640000    6.83688000    6.77702000      0.160754    0.18145700    0.08120600
Se   11.27119000    7.80871000   16.06861000     -0.208185   -0.43144500   -0.21377800
Se   13.36013000   11.29596000    4.60471000     -0.706230    1.02241100    1.01831700
Se   14.56274000   14.18295000   13.45128000      0.296508    0.01843900   -0.00892200
Se    9.11608000   15.87479000    5.28456000      0.711749    0.28509000    0.73653300
Se   13.64860000   20.62089000    0.03355000     -0.408435    0.04957300   -0.23461900
Se   20.72947000    2.08527000    5.50213000     -0.210076    0.00427200   -1.25474000
Se   18.42187000    0.18225000   17.05994000     -0.064942   -0.53637600   -0.07970400
Se   17.52368000    4.78332000    6.50842000      0.721111   -0.15057800   -0.28808300
Se   18.06944000    7.17300000   15.40120000      0.781377   -0.75382500   -0.18436200
Se   20.67426000    9.53327000    3.65641000     -0.931651   -0.01809500    0.16865200
Se   16.66790000   13.05029000   12.61913000      0.365352    0.38121100    0.64797200
Se   17.40548000   20.36992000    4.64188000      1.209484   -0.46558800   -0.55046200
Se   17.67530000   22.99722000   13.64395000      0.052080   -0.75326500   -0.17422300
Se    2.96755000    6.84649000    6.72422000      1.433154   -0.69002900   -0.66188400
Se    3.65585000    4.93700000   12.97052000      0.558719   -0.97901800    0.95145100
Se    1.64119000    8.18662000    3.38029000      0.504844   -0.38271400    0.34188500
Se    4.98868000   11.11003000   15.47996000      0.160437    0.69297900    0.15776700
Se    4.70578000   12.55091000    6.44795000      0.447929   -0.12102800    0.18910000
Se    3.22883000   17.43916000   18.75792000      0.376730   -0.25799500   -0.59304900
Se    1.70327000   21.78788000    6.02612000     -0.003871   -0.22600300   -0.42027000
Se    4.82907000    0.63061000   14.49015000      0.446168   -0.14717900   -0.28613000
Se   11.42716000    2.57014000    7.02337000     -1.145372    0.52244700    0.17506100
Se    8.64527000    3.71980000   16.25335000      0.508710    1.19487800   -0.28385500
Se   10.44838000    9.99441000    6.47811000     -0.200379    0.29379200    0.81467600
Se    8.74916000   10.64516000   14.51942000     -0.535959    0.39000400   -0.24316300
Se    8.64676000   15.41515000    9.24044000     -0.254998   -0.73564300   -0.44445800
Se   11.71488000   17.72705000   15.89364000     -0.465956    1.05264900    0.35161200
Se    8.74304000   19.49134000    3.21694000     -0.592022   -0.86732000    1.43206100
Se   10.66450000   21.17361000   16.60538000     -0.359561   -0.56619100    0.02967300
Se   14.41180000    3.93283000    5.44775000      0.291701    0.78513900   -0.26199600
Se   18.51013000    3.40450000   14.85503000      0.772245    0.89376600   -0.03700100
Se   14.43028000    9.37196000    7.37616000      0.283399    0.01618700   -0.28661800
Se   17.19224000    9.35621000   14.03230000      1.796277   -0.14177300    0.53295900
Se   16.80010000   12.71865000    5.55938000      0.190420   -0.54561200    0.20479700
Se   16.30132000   19.33151000   15.86995000      0.442260   -0.49649600    0.63395600
Se   15.91372000    0.73622000    5.42272000      0.309150   -0.11820900   -0.20617900
Se   18.74881000    3.44689000   12.16423000     -0.529250   -0.53138000    0.88090000
Se   22.80181000    4.00948000    7.86587000      0.829362    0.36601400    0.31990800
Se   22.54835000    3.45216000   13.86657000      0.482246   -0.24159600    1.34133900
Se   20.28494000   12.44546000    7.02260000     -0.922470   -0.21764400    0.86223000
Se   20.74918000   13.15685000   16.08066000      0.556365   -1.04233200   -0.84848300
Se   22.36927000   12.73542000    6.03637000      0.819233    0.25993200    0.11733400
Se   18.77278000   18.56875000   14.14962000      1.192352    0.16517300    0.43811200
Se   21.30480000   18.88748000    8.08306000      0.501765   -0.12360400   -0.56251700
Se   22.13580000   21.08992000   17.86163000      0.086444   -0.32889700   -0.31990600
Se    3.52853000    3.64851000    5.11291000      0.157302   -1.27368300    0.53269900
Se    7.48745000    1.36741000   17.94748000     -1.841954    1.05035700    1.42712800
Se    1.83766000    4.11183000    0.33817000     -0.241263    0.96528000    0.10374800
Se    2.96403000    9.50951000   10.37420000      0.051702   -0.36552800    0.85288700
Se    1.11510000   11.73317000    2.82223000      0.047780    1.82433800    2.43871000
Se    2.29216000   16.92210000   14.82051000      1.385275   -1.68338000    0.29905500
Se    3.94601000   16.05416000    1.30650000     -0.382255   -0.52679400    0.45173800
Se    5.09354000   18.83983000   13.49142000      0.306628   -0.08736200   -0.06358400
Se   10.53373000    0.46125000    3.20791000     -0.249076    0.32811100    0.10799000
Se   11.21277000    0.65753000   13.83412000     -0.304436    1.11013800    0.03213700
Se    9.86423000    8.90810000    3.41809000     -0.259268   -0.71782800   -0.03665600
Se    7.50659000    8.92642000   16.38635000     -0.264047    0.46225500    0.44897300
Se    9.24247000   12.33453000    3.62725000     -0.050045   -0.82744400    1.14575600
Se    9.51627000   12.66997000   12.18118000     -0.772824    1.24945800   -0.44669600
Se    9.58241000   20.58201000    1.41387000      0.004276    0.69964300   -1.29154400
Se   10.32144000   18.71025000   13.86871000      0.064708   -0.62363700    0.06446400
Se   18.92724000   22.48672000    8.52988000     -0.487573    0.85001900   -0.98025000
Se   14.67084000    2.62239000   13.45800000      0.296322   -0.16091400   -0.75526800
Se   15.55046000    7.15450000    3.93146000      0.044873   -0.25282000   -0.14194100
Se   14.45979000    5.69584000   15.30156000      1.158122    0.05153300   -0.48611200
Se   15.67757000   11.64954000    2.02532000      0.959529    1.97380400   -0.50236700
Se   16.64598000   16.75149000   12.44359000     -0.142391    0.31457500    0.70161300
Se   16.21269000   16.74052000    3.47904000      0.291161   -0.63239700   -0.20744000
Se   14.63670000   19.60475000   14.36114000     -0.586274    0.85736500   -0.76956400
Se   22.70055000   22.88957000    5.08927000      0.246157   -0.53139300   -0.17362700
Se   21.25980000    0.34978000   13.06899000      0.299268   -1.08117600    0.69574300
Se   19.96652000    3.51792000    3.43164000      0.798327    0.01200100    1.27789000
Se   20.36494000    9.75789000   14.30645000      0.932661   -1.82868100    0.05897100
Se    2.34502000   12.02872000    5.96345000     -0.221341   -0.09323100   -0.11596000
Se   21.53891000   15.38132000   15.33380000     -0.021942   -0.13704700    0.63811100
Se   21.83948000   18.93990000    4.31472000     -0.572457    0.51586300    0.42548400
Se   21.46015000   19.12080000   11.77743000      0.187546    1.23471700   -0.02206300
Se   22.90733000    4.97386000    5.54010000     -0.040554    0.11114800   -0.16292700
Se   20.44731000    5.79625000   14.83681000     -0.201709    0.05429000   -1.68651100
Se    0.32137000    9.80521000    2.11064000     -1.744345   -2.08239800   -0.80574100
Se    1.22543000   11.85151000   13.48284000      0.182808   -0.48461300   -0.40981400
Se    1.83602000   13.23771000    1.23477000      0.105919    1.98437700   -0.87062000
Se    1.67245000   21.81802000   13.18040000      0.042642   -0.05277800   -0.52520400
Se    4.30477000    0.17152000    3.49322000     -0.240234    0.18052300   -1.28383900
Se    5.47703000   18.56664000   15.86742000      0.501736    0.45232600   -0.70642700
Se    9.09189000    5.29496000    7.84801000      0.217027    0.06417400   -0.08920500
Se    7.68702000    4.59320000   12.49801000     -0.010524    0.04952400    0.51781900
Se    5.52240000    7.58756000    4.48924000      0.733477   -1.68256000   -0.79112500
Se    7.70707000   11.17177000   12.14135000      0.239140   -0.78932000    0.41196400
Se    7.34735000   15.53964000    2.38709000      0.954286    1.56017200    0.88450100
Se   11.72601000   14.96185000   13.74025000      0.572259   -0.13363900   -0.16797900
Se    7.07914000   22.40014000    5.68379000      0.214394   -0.38067400   -0.01921800
Se    7.93580000   21.73752000   13.88192000      0.191016    0.30960100    0.12687400
Se   12.48538000    1.76278000    3.73115000     -0.093735    0.60191700   -0.32103800
Se    9.85313000    1.59680000   11.97209000     -0.012370   -0.30600600    1.19277900
Se   14.38047000   10.09252000    2.96535000     -0.513754   -2.21566000    0.31434600
Se   12.03646000   10.41423000   13.18847000      0.406733   -0.47896200    0.26317300
Se   12.19042000   14.82083000    3.37465000      0.038735    0.19464800    0.23452700
Se   14.15610000   17.50703000   13.40387000     -0.762753   -0.35604100   -0.81098200
Se   12.21213000   19.37435000    2.94752000      0.294432    0.53604000    0.33051400
Se   13.79017000    0.03682000   15.05946000      0.331905    0.26979700    0.30642500
Se   17.91893000    4.70756000    1.13416000     -0.581881   -0.85865300    0.33215600
Se   16.09505000    6.49016000   12.24263000      0.143054   -1.10332700    2.09533800
Se   18.08183000    8.94757000    4.24415000      0.942240    0.53221900   -0.04112700
Se   20.48220000   13.46098000   12.80403000      1.018510   -0.81712000   -0.56612800
Se   21.77027000   15.37598000    2.91620000      0.002343    0.35442000    2.21472400
Se   19.37936000   15.63473000    9.75517000      0.697593   -0.55468800    0.37243700
Se   19.51051000   21.62423000    3.06900000     -0.700431    1.26896900    1.77854600
Se   16.73629000   22.47776000   11.49376000     -0.046101    0.13416800   -0.06547000
