384
23.00800000 23.00800000 19.32000000
Ge    5.85016000    4.67664000   10.57209000     -0.112447   -0.02659500    0.26868900
Ge    5.38706000    7.47463000    1.84628000     -1.005281   -0.28272800    0.57705400
Ge    1.36287000   11.20663000    8.09194000      0.392160   -0.52724300   -0.65782400
Ge    5.25658000   11.02187000   18.22107000     -0.173539    0.36291700    0.01870300
Ge    4.48763000   14.91063000   10.14907000      0.324893    0.09232300   -1.68735600
Ge    7.84093000   17.94362000    1.09851000      0.571699   -0.12031200   -0.16251400
Ge    8.17503000   19.57623000    8.99647000      1.456655    0.42531400    0.67327900
Ge    4.00141000    3.31624000   18.57274000      0.702564   -0.95757900    0.17547100
Ge    9.13702000    5.77905000   10.71625000     -0.314865    0.46778900    0.48498600
Ge   11.17920000    5.44712000    1.29880000     -0.849314    1.78284100    0.53450400
Ge   11.24167000   13.09328000   10.46263000      0.921791    0.37643700   -1.05845000
Ge   11.86863000   12.61092000   17.47194000      0.198974    0.99165000    0.54789700
Ge    9.63324000   17.14907000    7.53911000     -0.580454   -0.94191500   -0.94508500
Ge   13.76813000   15.67789000    0.94898000     -0.661109    0.23109900   -0.11574000
Ge   10.81959000    2.15145000    9.55505000     -0.061325   -0.27980400    0.20952200
Ge   16.00525000   21.53003000   19.25913000      0.578427   -0.94592200   -0.30787700
Ge   19.29668000    5.19838000   10.50237000      0.220318    0.53946300    0.00815200
Ge   18.54003000    8.96100000   17.46506000      0.402718   -0.48392300    0.13739600
Ge   21.45878000   14.04614000   10.45969000     -0.696663    0.41103600   -0.10824600
Ge   16.60216000   10.89513000   19.01775000     -0.573799   -0.52576400   -0.05998500
Ge   14.06053000   17.22811000    8.08161000     -1.316852    0.89166600   -1.01873700
Ge   18.54335000   13.63589000    1.60129000      0.372725    1.03186600   -0.04781600
Ge   19.94568000    0.71829000   10.57075000      0.263417   -0.18943800   -0.22965600
Ge   17.56336000    2.18749000   18.73221000     -0.344935   -0.31840500    0.27979600
Ge    0.31233000    6.91022000    9.55705000     -0.344959   -0.01819500    0.46404800
Ge   21.66312000    3.04084000    0.05241000      0.766886    0.32216900    0.78812300
Ge    1.40440000   11.43890000   11.15923000      0.114019   -1.17202700   -0.35720500
Ge    0.52502000   11.36193000   18.87586000     -0.715258   -0.03666700    0.20735800
Ge   22.84050000   14.58396000    7.90636000     -0.021597    0.37656300   -0.87986700
Ge    0.80731000   14.96715000   16.78351000     -0.214593    1.89062500   -0.03009400
Ge   20.26536000   20.66264000    9.50056000      0.598205   -0.32949800    1.03871300
Ge    3.34889000   20.66979000    0.10506000     -0.433793    0.97431300   -0.43301400
Ge    5.79763000    8.57956000    8.21557000      0.410245    0.45285500    0.41164000
Ge    0.48622000    6.42996000   19.16525000      0.519203    0.13292900    1.17047800
Ge   22.10633000    7.79961000    5.88434000     -0.092573    0.28010400   -0.07738900
Ge    2.73319000   13.12257000   14.91873000      1.661967    1.00863700    0.56464900
Ge    5.33938000   16.70505000    3.67035000     -0.218834    0.20108100   -0.13342400
Ge    1.37441000   19.79228000   18.08334000      0.067720   -0.78916500   -0.23955300
Ge    4.50594000   19.11957000   10.39748000      0.037345   -0.29271700   -0.02382400
Ge    3.38369000    0.02927000   16.41718000     -0.587145   -0.72297100   -1.21672400
Ge    8.22514000    3.08355000    6.42523000     -0.355103    0.14364000    0.56161900
Ge    8.27690000    3.91105000   19.03353000     -0.691979    0.19509000    0.04307700
Ge    6.87849000   13.33750000    3.53658000     -0.184910   -1.26264300    0.15294200
Ge    7.86050000    8.04538000    1.83150000      0.393567    2.27832400    0.79503800
Ge    6.20083000   16.47659000    6.67223000     -0.878182   -0.23656100    0.67251700
Ge    9.10904000   14.86751000   17.88236000     -0.101065   -0.07030300    0.09143400
Ge    9.77368000    0.19511000    6.37213000      0.568438   -0.44250000   -1.08030900
Ge   10.35021000   21.18393000   14.09752000      0.085169    0.60126700   -0.87381000
Ge   13.00649000    6.19697000    8.94045000      0.642657    0.71759500    0.61234400
Ge   14.08579000    6.40744000   17.79437000      0.181261    0.24519900    0.16408100
Ge   12.58563000    9.84247000    9.09300000      0.506214    0.17132100   -0.02580800
Ge   16.03893000   13.37057000   15.53981000     -0.568362   -0.04237200   -0.16908500
Ge   14.07007000   17.28579000    4.64229000     -0.751442    0.26223500   -0.20161600
Ge   14.10250000   18.56769000    1.57285000     -0.257714   -0.89532500   -0.42132700
Ge   14.73246000   21.64499000    8.49867000     -0.335076    0.02418500   -0.40644800
Ge   16.77059000    1.84887000   14.91549000     -0.693097   -0.10642600   -0.80481700
Ge   20.18516000    3.97651000    7.06232000     -0.149448    0.58856200   -0.51578400
Ge   20.21053000    5.96489000   17.12624000      0.273057   -0.03275600    1.40068600
Ge   16.57530000   10.76587000    7.06960000     -0.873589   -0.55870600    1.26708300
Ge   19.59523000   14.97080000   17.44610000      0.249488    0.32380300    0.29271600
Ge   19.03831000   16.70604000    5.00590000      0.141715   -0.09075700   -0.42179000
Ge   20.02857000   18.11134000   16.34299000      0.248932    0.03114500   -0.28793700
Ge    0.12143000    2.56752000    4.67214000     -0.413300   -0.79848600   -0.52271000
Ge   19.58500000   22.26954000    0.28409000     -0.603388   -0.57199600    0.28413600
Ge    5.24124000    3.08430000    6.93583000     -0.062747    0.48454900    0.12906400
Ge    2.25725000    4.80374000   15.28360000      0.601401    0.27344700   -0.20917300
Ge    2.10193000    5.58704000    4.44210000      0.440189    0.98627700    0.05860100
Ge    3.28785000    9.84801000   14.40948000     -0.964027   -0.98084400   -0.84102000
Ge    1.84573000   15.52917000    4.50224000     -0.363669   -0.21134100    0.22230800
Ge    1.24158000   18.11923000   13.14008000     -0.110144    0.78653100   -1.05533700
Ge    1.32223000    2.25720000    7.15367000      0.469530   -0.08622000   -0.50334900
Ge    4.80535000   16.33728000   17.05051000     -0.889138   -0.47950100   -0.43150500
Ge    9.24325000    2.97039000    2.98118000      0.247102   -0.25072100   -0.04286300
Ge   10.73274000    2.56996000   16.23327000      0.134371   -1.86304900    0.04246900
Ge    8.39912000    9.13448000    5.46162000     -0.101778   -0.75628800    0.37947700
Ge    9.60216000    8.38850000   14.30161000      0.400277   -0.61638100   -0.09063200
Ge   11.05332000   14.10973000    5.63793000     -0.015040   -0.04608500   -0.47431800
Ge   10.90759000   12.31068000   14.19807000     -0.033572    0.47910400    1.21456700
Ge    5.60328000   21.17663000    2.43214000      1.043501    0.61649600    0.97180600
Ge    9.49283000   18.60223000   17.27525000      0.757122   -0.36791300    0.10156500
Ge   13.63804000    1.74975000    6.42646000      0.795686   -1.40974800   -0.33210500
Ge   10.62597000    5.43042000   15.00758000     -0.416185    0.24224300   -0.19527500
Ge   15.59163000    6.21051000    6.35579000     -1.195978    0.38300600    0.20606700
Ge   13.57824000    9.58078000   14.93912000     -0.290927    0.00598000   -0.15623100
Ge   14.66333000   14.10632000    4.24306000     -0.433054   -0.41097000    0.03762000
Ge   16.00685000   16.60791000   15.17662000     -0.827860    0.53991900   -0.30689800
Ge   10.47412000   17.58043000    2.92731000      0.441640   -0.66701000   -0.17989100
Ge   12.80941000   22.02271000   17.12033000      1.027961    1.02203900    0.48725200
Ge   17.42583000    5.70299000    4.01225000      0.318746   -0.63719300    0.26791600
Ge   21.15919000    2.58034000   12.12598000      0.153630    0.43327400   -0.97816800
Ge   19.32140000    8.44276000    7.42258000     -0.856615    0.40000700   -0.43612900
Ge   19.16479000   11.72928000   14.33587000     -0.707335    1.59182100    0.12592900
Ge   22.69070000   14.89580000    0.93605000      0.657394   -0.47559200   -0.89069300
Ge   18.53323000   14.79680000   12.79790000     -1.654185    0.56151700   -0.24454100
Ge   20.26481000   20.42131000    5.78241000      0.232872   -0.00767300   -0.63920800
Ge   22.81136000   20.82039000   15.39581000     -0.424892    1.74557900   -0.25864800
Ge    5.20274000    2.93358000    3.00396000     -0.392091    0.00555400   -0.18615900
Ge    6.39768000    5.05752000   15.87924000     -1.200164   -0.66213600    0.32623600
Ge    4.13820000    9.45684000    4.70974000     -0.663867    1.07249600   -0.27520600
Ge    4.89380000    8.06350000   12.29468000     -1.092665    0.36676400    0.71224900
Ge    6.06685000   14.53524000    0.54940000     -0.369592    0.07486000   -0.79663500
Ge    3.31547000   15.45090000   12.80361000     -0.320530   -0.56932000    1.26971500
Ge    4.28704000   22.20590000    5.68547000      0.171104    0.06096900    1.24621700
Ge    7.62274000   19.74501000   12.38784000     -0.809336   -0.41409100    0.51691100
Ge   11.99380000    4.64305000    5.65577000     -0.365487    0.25367700   -0.82873700
Ge    7.59728000    1.74183000   13.41894000     -0.267067   -0.17310200   -0.81869900
Ge   11.92688000   10.54148000    2.26780000      0.119009    0.47068900   -0.71662700
Ge   13.18327000    7.03238000   13.73501000     -0.151530    0.75730900    0.17480400
Ge   10.17031000   13.72369000    1.89580000      0.296256    0.66967900   -1.22322700
Ge    8.86738000   16.09089000   11.75904000      0.273720   -1.25590300    0.25588700
Ge   11.93610000   22.51651000    1.24561000      0.598417    0.08105200   -0.08621500
Ge   12.24430000   18.86138000   11.50225000     -0.773134   -1.28776800    1.02093000
Ge   21.13823000    0.65275000   17.95318000      0.884219   -0.49416300   -0.85638400
Ge   14.12433000    4.60962000   11.34027000      0.541501   -0.08566100    0.33746500
Ge   17.61108000    8.33846000    1.68622000      0.009513   -1.43020800    0.41254600
Ge   16.33031000    7.57104000   10.22784000     -0.467797    1.71350100   -1.56899800
Ge   17.97118000   11.60169000    3.52460000     -0.141663   -0.65623500    0.09758200
Ge   19.49719000   14.81061000    7.45169000     -0.002748    0.84315700   -0.29515300
Ge   18.06538000   18.48456000    2.87605000      0.227796    0.27353800   -0.23156500
Ge   15.97855000   20.07815000   11.68682000     -0.505573   -0.02409000    0.28285500
Ge    0.63964000    0.28709000    2.36772000     -0.398387   -0.03102600    0.00696700
Ge    0.58340000    0.45309000   11.36775000     -0.381467   -0.06005900    0.04241500
Ge   19.76935000    6.35712000    4.56030000      0.365195   -0.33579700   -0.89175600
Ge   22.62757000    9.63452000   13.49979000      0.440095   -0.23922700    0.08102600
Ge   21.35732000   12.89132000    3.44920000     -0.123792   -0.12231000   -0.28461500
Ge   22.58098000   17.92427000   10.11088000      0.360219    0.27116600   -0.24000000
Ge    2.86390000   20.47471000    3.76903000      0.300582    0.21798300    0.48179900
Ge   20.34113000   17.09006000   12.22351000     -0.143473   -0.14251700    0.31291500
Se    0.53161000    1.34170000   18.69316000     -0.313518   -0.27981800    0.02677300
Se    1.70684000    3.15135000   10.79132000     -0.661902    0.32146000    0.23184300
Se   22.56412000    6.49138000    2.51246000      0.741648   -0.19697300    0.07677900
Se   22.73710000    7.30451000   12.65802000      0.554929   -0.00539800    0.57655600
Se    3.33750000   10.98034000    0.80849000     -0.605422    0.37935800   -2.46157200
Se    1.62909000   13.16573000    9.62565000      0.407325    0.93641800   -0.07873000
Se    2.14697000   17.99323000    4.04951000     -0.210802    0.13654600    0.16789000
Se    1.19863000   19.88602000    9.77586000      0.142607    0.33178700   -0.32960300
Se    7.43642000    2.13462000    1.42790000     -0.408419    0.43967900    0.31110600
Se    6.39703000    1.34325000   10.61525000      0.193231    0.45296200    1.09759100
Se    7.81700000    5.80298000    2.53813000     -0.309540   -1.92820600   -0.11139900
Se   10.45749000    7.33468000   12.27120000      0.059370    0.39584300    0.02943900
Se    8.27942000   11.77865000    0.92726000      0.039144   -0.04045500   -0.37773900
Se    5.83732000   14.99763000   12.51968000      0.137183   -0.00836700    0.50458500
Se    4.68560000   19.16000000    1.48349000      0.229605   -0.14423200    0.06802000
Se    9.45205000   18.23215000   10.93589000     -0.029160    1.81573800   -0.68405500
Se   13.79146000    3.57811000    0.86071000      0.500270    0.26243800    0.28184400
Se   13.22326000    0.44071000    9.52562000     -0.806335    0.07626500    0.72292500
Se    9.47282000    7.30698000    0.35084000      1.442580   -1.04793200   -1.57706000
Se    9.78619000    9.79168000    8.82673000     -0.194462    0.16757100   -0.04366800
Se   12.42148000   12.80130000    0.74696000     -0.318005   -0.36287300   -0.11419500
Se   13.54247000   11.85146000   10.58295000     -0.745906   -0.41999900   -0.42472200
Se   16.21914000   15.18223000    1.07450000     -0.117335   -0.72808600    0.17253700
Se   11.50486000   18.25077000    8.30308000      1.362764    0.11855300    0.00511800
Se   16.95841000    3.51267000    3.09196000     -0.393264    0.26599000   -0.87749000
Se   14.82960000    2.25024000   10.93902000     -0.013414    0.39434100    1.33920100
Se   17.36315000    6.48983000   17.55704000      0.354182    0.26645400    0.29991800
Se   21.27075000    7.69897000   10.91187000     -0.367117   -0.31605400   -0.45718200
Se   18.72469000   10.26037000    0.83324000      0.941437    0.86802500   -0.61913400
Se   17.50146000   16.21772000    6.82912000      0.347231   -0.80658200   -0.17987700
Se   19.53144000   16.44089000    1.52133000     -0.430075   -0.38817500   -1.14872000
Se   17.76348000   18.53179000   10.70648000      0.056362   -0.45192600    0.33430100
Se    3.73822000    4.96850000    2.06252000      0.367048   -0.24324600    0.30964000
Se    3.28700000    6.39803000   11.25713000     -0.628094    0.50482700   -0.27938800
Se    4.87686000   10.31009000    2.19277000      1.968069   -1.03370700    1.95006900
Se    5.32450000   12.94197000   11.20162000      0.130837   -0.10662000    0.23893000
Se    4.14901000   14.58929000    4.16640000     -0.014069    0.26943500   -0.46991100
Se    2.85604000   16.57097000   10.60911000      0.013301    0.60196000    0.07005100
Se    4.19917000   22.97000000   18.63690000      0.530632   -0.05054500    1.33210300
Se    6.49875000   20.71251000   10.21485000      0.140307    0.77776800    0.25996500
Se   10.67069000    6.46265000    3.64138000      0.546302   -0.07564300    0.72673100
Se    7.92809000    2.93455000    9.76519000     -0.530751    0.10411700   -0.95497700
Se   10.35951000   10.89022000   16.91187000     -0.478978   -0.87802000    0.39375300
Se    7.26818000   10.47531000    9.24942000      0.362688   -0.26080800   -1.00164400
Se   10.50645000   16.96913000    0.18878000     -1.089627    0.50422900    0.22232300
Se   11.74169000   15.49956000   11.44731000     -0.567317   -0.31949800   -0.90706300
Se   14.11643000    0.05165000    3.43825000     -0.644787    0.18020900   -1.19256900
Se   11.90895000   21.14787000   12.03979000     -0.044151    0.53856700    0.42996600
Se   13.36772000    6.47225000    1.05732000     -0.265428    0.05727900    0.07421800
Se   18.43672000    7.47683000   12.03135000     -0.302185   -0.23153900    0.14908200
Se   15.51135000    8.22041000    0.11651000     -0.138666    0.80169100    0.25660100
Se   15.34453000   10.16479000   13.24542000     -1.869265    0.79708600   -1.32901500
Se   18.99325000   14.11447000    4.05998000      0.037342    0.21901700   -0.17080100
Se   14.59287000   14.03919000    9.62462000     -0.425712    0.83062200   -0.24265000
Se   17.07769000    0.05326000    1.42218000      0.394092    0.44826300   -0.17026800
Se   13.83719000   19.54895000    9.91773000      1.594400    0.17277300   -0.78816800
Se   20.95176000    0.77506000    1.81183000      0.790161    0.43184900    0.25962600
Se   22.71328000    4.80539000   10.88583000     -0.055743   -1.29201800    0.52854500
Se   20.31435000    6.12519000    1.95879000     -0.732746    0.25351000    0.13802300
Se   22.18089000   10.63083000   11.25665000     -0.313827    0.37416400   -0.76469700
Se   21.37036000   13.00990000    0.09371000      0.039429   -0.25576300    0.19084800
Se    0.07971000   15.87301000   11.43566000     -0.973136   -0.29272700    0.32758900
Se    1.24882000   20.77222000    2.00632000     -0.637593    0.67773400   -0.59287300
Se   20.53433000   20.72312000   14.05394000     -0.787806    0.34680800    0.45759900
Se    4.43325000    5.03227000    8.32978000      0.205020   -0.46907200   -0.13187600
Se    0.42823000    6.18957000   16.79788000     -0.129166    0.04432000   -1.23672600
Se    4.26296000   10.95898000    9.00502000      0.203644   -0.12137300   -0.64106100
Se    3.88387000    8.32651000   17.64882000     -0.033053    0.08132100   -0.71153200
Se    4.45618000   18.35476000    7.87535000      0.055107    0.26857400   -0.72467200
Se   22.85219000   18.51204000   15.12331000     -0.786894   -1.69652400    1.13619800
Se    3.75476000   22.03460000   12.02439000     -0.060648    0.23178600    0.34187700
Se    8.84708000    0.42524000   16.54441000      0.191546    0.01037800   -0.31082100
Se    6.94597000    4.25723000    4.37538000     -0.060432    0.79941600    0.44860100
Se    5.69049000    5.00922000   18.39013000      1.212536    0.98051300    0.43370800
Se    6.42074000   10.76427000    5.19193000     -0.485360    0.24972500    0.34520000
Se    4.14051000    6.86536000   15.57439000     -0.407372   -0.13504400    0.02927200
Se    6.29218000   16.50686000    9.49354000      0.104989    0.39487900   -0.55728200
Se    6.91170000   16.58190000   18.23376000      0.654596   -0.59534100    0.75134600
Se    7.79808000   18.67211000    6.84531000      0.264938   -0.07744700   -0.61333000
Se    7.56807000   22.18023000    1.22301000      0.032275   -0.04884800    0.04008300
Se   15.28865000    1.21594000    8.25835000      0.098137    0.37857900   -0.57769500
Se   12.68054000    4.08609000   15.71966000     -0.492798    0.20864500    0.34036000
Se   13.29268000    8.02993000   10.71785000      0.200710   -0.14102700   -0.84356300
Se   13.86967000   11.45185000   16.73858000      0.345006   -0.37372400   -0.43096500
Se   13.40331000   15.42336000    6.40971000      0.119698   -0.53233200   -0.27767600
Se   13.96724000   15.90478000   17.76831000     -0.539844   -0.18350500   -0.52282800
Se   12.65419000   22.28387000    6.19752000      0.026046   -0.04020600    0.62174200
Se   18.02793000   20.76035000   17.79174000     -0.101186    0.87639500   -0.15613500
Se   19.78553000    3.00645000    9.20005000     -0.777139   -0.46987800    0.67598500
Se   19.72035000    3.06502000   17.70598000      0.326124    0.04494100   -0.50737200
Se   18.05487000    9.94934000    9.08652000     -0.108050    0.39194800   -0.72939800
Se   17.17050000   11.06560000   16.14443000      0.513192   -0.69649600    0.48685800
Se   15.49432000   16.36815000    9.59678000      0.731782   -0.74625400    1.05190800
Se   18.01554000   15.19831000   15.35748000      0.892705   -0.42597200    0.10805900
Se   18.55540000   18.98733000    8.32273000      0.039522   -0.89931300    0.06631800
Se   20.63272000   19.98819000    2.00742000     -0.022209   -0.47537500   -0.21971300
Se    4.64188000    0.62074000    7.87637000      0.257858    0.06818100   -0.61390400
Se    0.64832000    3.78499000   17.42651000     -0.856699   -0.79609800    0.02567800
Se    6.36936000    7.45159000   10.57973000      1.315537   -0.69606900   -1.29739900
Se    2.82928000    7.42362000    0.16137000     -0.007737    0.40532600    0.32011700
Se    3.80641000   14.94866000    7.54531000      1.117602   -0.67961500    0.24041100
Se    4.87097000   13.34190000   16.83010000     -0.083346    0.34460200    0.28020300
Se    3.34961000   21.10532000    9.39986000     -0.860691   -0.09958900    0.66630700
Se   22.73300000   16.83565000   18.91435000      0.097496   -0.66659600   -0.21710800
Se    8.95233000    0.30721000    8.61263000     -0.389641    0.48333300    1.29961500
Se   10.70954000    3.17210000    0.77322000     -0.007031    0.05577500   -0.29231600
Se   11.58689000    4.74646000   10.32826000      0.305406   -0.52920300   -0.03222900
Se    6.81216000    8.54808000   18.62004000     -0.921910   -0.92923100    0.94363900
Se   10.16642000   13.57795000    8.23403000      0.412074   -0.11109600    0.75120700
Se    7.87746000   11.37732000   17.83064000      0.747392    1.41821300    0.31526800
Se   10.28519000   21.38484000    8.61901000     -0.342365   -0.92276900   -0.26172600
Se   11.61633000   15.42301000   16.61037000      0.657726   -0.96167600    0.91489300
Se   17.32367000   20.80023000    7.61827000     -0.451278    0.38271000    0.52326900
Se   15.26762000    4.08416000   18.44773000      0.052027    0.44168300   -0.12438400
Se   15.48730000    5.53796000    8.92674000     -1.237893   -1.10388400    0.29111100
Se   12.49368000    8.99514000    0.15604000     -0.000181   -0.90638400    0.08626300
Se   15.98440000   12.08537000    9.29385000      0.997832   -0.49934300   -0.10994600
Se   16.07410000   13.22152000   18.47027000      0.227940    0.94149400   -0.09562000
Se   15.28649000   18.60322000    6.39467000      0.065038   -0.15736100    0.19686400
Se   16.48037000   19.06053000    0.87208000      0.469835    0.70986200   -0.15017300
Se   21.86348000   22.66619000    9.24138000      0.437568    0.53274500    0.38109300
Se   22.82859000    1.11898000   15.08575000     -0.574204    0.59994300   -0.36058500
Se   20.80420000    6.40137000    7.78328000      0.291844    0.16071400    0.64944600
Se   21.28408000    8.53983000   18.27037000     -0.867248   -0.79819400    0.24675100
Se   21.42513000    9.55901000    7.73169000      0.333283    0.29669900   -0.07631500
Se   21.99254000   10.32037000   17.02465000      0.154109    0.43609300   -0.08718200
Se   21.34182000   16.04802000    6.22326000     -0.645692   -0.01893900    0.65278700
Se   18.23126000   16.69870000   18.72784000      0.196001    0.88887700    0.08676300
Se    2.57960000    1.43099000    9.14922000     -0.481387    0.26148000   -0.05405600
Se    4.17446000    3.19170000   16.12785000     -0.600570   -0.26845000   -0.93720100
Se    1.22127000    8.11955000    7.39496000     -0.748379    0.84621400   -0.10419500
Se    1.22343000    8.85713000   15.37838000      0.120422    0.34677000    0.00360100
Se    1.90933000   16.34252000    7.05106000     -1.125791   -0.35616600    0.00245700
Se    1.06098000   12.55413000   16.69366000     -0.105939   -0.56904600   -0.19026600
Se    0.69683000   18.59687000    6.07895000     -0.206596   -0.09430500   -0.42601300
Se    3.13132000   20.10671000   16.25906000     -0.534140    0.96237600    0.18749300
Se    7.44875000    1.44289000    4.53747000     -0.462000   -0.78709000    0.21249700
Se   12.32254000    1.35988000   18.57612000     -0.022985   -1.44814200   -0.32660300
Se    7.70435000    6.55608000    6.46074000     -0.150519    1.10785600    0.00373000
Se    7.44774000    7.10056000   14.80164000      0.576773    0.48228900   -0.64195900
Se    7.13124000   13.80463000    5.94646000      0.337745    0.58057700    0.80481700
Se    8.25047000   17.50382000   15.07294000     -0.258759   -0.73371800    0.03714900
Se    5.32263000   19.87427000    5.87526000     -0.445629    0.09106000    0.44414900
Se    8.73254000   14.95481000   15.36484000     -0.086326    0.67586200    0.33336200
Se   15.22854000   21.30909000    5.74846000     -0.860502    0.93485600   -0.30854800
Se   14.87466000    1.89645000   16.42524000     -0.449376   -0.81758700    0.59593100
Se   12.19399000    6.82383000    6.81711000      0.110231    0.15957100   -0.03179300
Se   11.32016000    7.76829000   16.06278000     -0.406762   -0.37568900   -0.34461900
Se   13.34777000   11.25361000    4.60985000     -1.018283    1.46419800    1.55067700
Se   14.59437000   14.17873000   13.43061000      0.001093    0.04023700    0.11323900
Se    9.17022000   15.85000000    5.23666000      0.487756    0.36591500    0.86426300
Se   13.63744000   20.60392000    0.10385000     -0.411301    0.31660200   -0.39743400
Se   20.70257000    2.08538000    5.51388000     -0.015420   -0.11876100   -1.42624300
Se   18.44076000    0.12152000   17.00498000     -0.151776   -0.46166200   -0.11233400
Se   17.52778000    4.76899000    6.51912000      0.891519   -0.22676200   -0.30768200
Se   18.06883000    7.19506000   15.37512000      0.816604   -0.97558700   -0.13252200
Se   20.64731000    9.57117000    3.64599000     -0.886846   -0.03199300    0.19508300
Se   16.60705000   13.03090000   12.59536000      0.748695    0.44251700    0.60040000
Se   17.43581000   20.43913000    4.63628000      1.030367   -0.52759000   -0.70226100
Se   17.60916000   22.98236000   13.64511000      0.471806   -0.75429800    0.38518200
Se    2.95382000    6.84642000    6.71485000      1.377945   -0.74385700   -0.69640300
Se    3.64934000    4.89327000   12.94466000      0.475722   -0.76449900    0.71395200
Se    1.66267000    8.11536000    3.35956000      0.309513   -0.16324600    0.26796700
Se    4.95149000   11.16539000   15.43547000      0.224145    0.62392300    0.32314700
Se    4.67851000   12.57300000    6.47956000      0.492367   -0.17607600    0.16343100
Se    3.26466000   17.47615000   18.75456000      0.381968   -0.41317700   -0.45140300
Se    1.72656000   21.77462000    6.00136000     -0.137896   -0.23998900   -0.52333200
Se    4.88619000    0.61786000   14.50820000      0.322511   -0.27766000   -0.32980900
Se   11.43058000    2.54608000    7.00508000     -1.083567    0.42459400    0.28628400
Se    8.65798000    3.70714000   16.27440000      0.196369    1.35015900   -0.45955000
Se   10.43944000    9.98485000    6.44623000     -0.364205    0.23494500    0.86345200
Se    8.73961000   10.68753000   14.54665000     -0.548888    0.33519900   -0.32146300
Se    8.64919000   15.47042000    9.24259000     -0.105989   -0.98667100   -0.50694300
Se   11.63536000   17.72491000   15.91941000     -0.350932    1.16283500    0.25977100
Se    8.73947000   19.46186000    3.20209000     -0.760151   -0.76023300    1.57051000
Se   10.65124000   21.20677000   16.57467000     -0.401017   -0.78074200    0.11532200
Se   14.39029000    3.88570000    5.45901000      0.092494    0.69728300   -0.20895800
Se   18.55897000    3.36830000   14.88744000      0.310938    0.53917400   -0.26550300
Se   14.43970000    9.34720000    7.38936000      0.295370    0.07843900   -0.28083300
Se   17.17543000    9.30299000   14.07547000      1.523495    0.31848200    0.47033800
Se   16.79150000   12.68090000    5.57200000      0.149231   -0.18585700    0.15203000
Se   16.29637000   19.33573000   15.84154000      0.549076   -0.49364400    0.77366000
Se   15.92531000    0.71327000    5.44268000      0.242507   -0.08320000   -0.21393900
Se   18.74405000    3.42538000   12.17490000     -0.233470   -0.32546600    0.76745000
Se   22.83249000    4.02799000    7.93072000      0.706778    0.41662300    0.14165600
Se   22.56862000    3.43988000   13.83332000      0.539987   -0.22185400    1.38525700
Se   20.30352000   12.46803000    7.02590000     -1.302933   -0.58008400    1.02925300
Se   20.69243000   13.17282000   16.09362000      0.505807   -0.75190000   -0.68729500
Se   22.30947000   12.69461000    5.97018000      1.303341    0.44311300    0.02543400
Se   18.77670000   18.60919000   14.15356000      1.114139    0.09031900    0.32302700
Se   21.35507000   18.91553000    8.03673000      0.777452   -0.32300700   -0.69175100
Se   22.18835000   21.06339000   17.86810000     -0.085344   -0.20505500   -0.26662400
Se    3.48605000    3.63612000    5.09681000      0.252853   -1.23932500    0.55795100
Se    7.42861000    1.42265000   17.95920000     -0.637494    0.18182300    0.10967400
Se    1.96166000    4.12613000    0.33794000     -0.586997    0.89093800    0.23354300
Se    2.96471000    9.52674000   10.38331000     -0.342294   -0.05469000    1.08937800
Se    1.18235000   11.70690000    2.80349000     -0.051467    1.30587200    2.15562700
Se    2.36062000   16.92462000   14.82204000      1.039086   -1.42109400    0.04751700
Se    3.96679000   16.06464000    1.33385000     -0.371830   -0.46380300    0.32157200
Se    5.07095000   18.87092000   13.51682000      0.395578   -0.10752100   -0.05591900
Se   10.54197000    0.45480000    3.20186000     -0.268219    0.50302200    0.28606800
Se   11.19139000    0.64227000   13.80296000     -0.120897    0.90514500    0.18531700
Se    9.90225000    8.94482000    3.44102000     -0.417637   -0.79991200   -0.24485700
Se    7.51228000    8.93995000   16.44051000     -0.113099    0.37651000   -0.21945600
Se    9.27262000   12.34641000    3.64743000      0.112254   -0.50407500    0.61830700
Se    9.55892000   12.67745000   12.14095000     -1.193745    0.84373800   -0.27296200
Se    9.55474000   20.58978000    1.41690000      0.086504    0.77184900   -1.37848900
Se   10.27159000   18.65649000   13.83005000      0.083386   -0.44918500    0.21482100
Se   18.90195000   22.41940000    8.51901000     -0.048317    1.21886700   -0.71245100
Se   14.63958000    2.64143000   13.48890000      0.418818   -0.22076100   -1.10581800
Se   15.58630000    7.15347000    3.92512000     -0.505263   -0.01169500   -0.06164900
Se   14.50746000    5.72680000   15.31396000      0.850566   -0.18569100   -0.42165300
Se   15.70182000   11.68360000    2.05573000      0.774082    1.66952500   -0.45024000
Se   16.68822000   16.71942000   12.45260000     -0.344185    0.33669900    0.76765700
Se   16.25011000   16.77866000    3.38180000     -0.140131   -0.74634800    0.19165400
Se   14.60923000   19.62813000   14.38081000     -0.653010    0.90255400   -0.91200500
Se   22.73750000   22.89509000    5.03096000      0.410837   -0.57587600   -0.04042200
Se   21.26220000    0.29988000   13.13652000      0.421610   -0.65818400    0.45028700
Se   19.91312000    3.51844000    3.41927000      0.894759   -0.01113200    1.35890300
Se   20.35753000    9.76304000   14.27610000      0.675599   -1.59059900    0.08292300
Se    2.36649000   12.00557000    5.94584000     -0.319753    0.00885600   -0.01103200
Se   21.52403000   15.43908000   15.32945000     -0.058190   -0.36922700    0.62271700
Se   21.83491000   19.01347000    4.34227000     -0.260842    0.18779800    0.23877700
Se   21.44128000   19.21141000   11.86960000      0.163090    0.42417600   -0.33069500
Se   22.88322000    4.94024000    5.50473000     -0.101770    0.52667100    0.16803200
Se   20.45264000    5.86423000   14.83518000     -0.346526    0.08102100   -0.94966900
Se    0.27484000    9.78382000    2.09972000     -1.420603   -1.62791300   -0.38923500
Se    1.26949000   11.89226000   13.43448000     -0.447493   -0.51392100    0.66004700
Se    1.81944000   13.25052000    1.20778000      0.015382    2.08320100   -0.77779800
Se    1.66505000   21.88011000   13.17987000      0.308434   -0.05570200   -0.54341800
Se    4.32754000    0.19704000    3.49071000     -0.178929    0.09288600   -1.24557800
Se    5.48335000   18.51176000   15.87803000      0.573972    0.52889100   -0.73704000
Se    9.06865000    5.27943000    7.86928000      0.051255    0.25267100   -0.29920800
Se    7.71510000    4.63412000   12.46677000     -0.078403   -0.06181000    0.67145400
Se    5.48062000    7.56441000    4.47316000      0.711126   -1.61036900   -0.71049000
Se    7.68135000   11.19211000   12.13738000      0.322413   -0.68076700    0.45876700
Se    7.35865000   15.53094000    2.40784000      0.838470    1.29855400    0.24509200
Se   11.72951000   14.93056000   13.72550000      0.541746   -0.08317300    0.11423700
Se    7.09696000   22.44545000    5.77281000      0.070224   -0.39534200   -0.16937700
Se    7.94606000   21.71152000   13.92592000     -0.066681    0.40907600    0.09859700
Se   12.47151000    1.80117000    3.68685000      0.365951   -0.09249100   -0.21259300
Se    9.83598000    1.58803000   12.01239000     -0.114618   -0.32692900    0.90542400
Se   14.39819000   10.09901000    3.01066000      0.158629   -2.24721500   -0.40042000
Se   12.02961000   10.44657000   13.20984000      0.549549   -0.73725600   -0.15863100
Se   12.13963000   14.83728000    3.39186000      0.328545    0.17700900    0.02543000
Se   14.09600000   17.53611000   13.42051000     -0.533727   -0.40603500   -0.66048500
Se   12.14501000   19.41087000    2.91700000      0.177589    0.37910700    0.37874900
Se   13.80087000    0.01058000   14.98744000      0.285629    0.33112200    0.58980100
Se   17.95923000    4.65466000    1.16658000     -0.457767   -0.72129200    0.00338500
Se   16.10938000    6.52324000   12.25574000      0.026764   -1.18185800    2.07109000
Se   18.04611000    8.98772000    4.27817000      0.921689    0.47983100   -0.08479600
Se   20.41700000   13.41223000   12.77624000      1.117876   -0.51272700   -0.75000500
Se   21.77406000   15.37511000    2.98600000      0.585007    0.42177100    1.20498100
Se   19.36011000   15.63896000    9.72607000      0.752094   -0.57459800    0.54135200
Se   19.48884000   21.62972000    3.11077000     -0.177146    0.32609400    1.17813000
Se   16.76544000   22.48611000   11.53091000     -0.258986    0.12387400   -0.66284100
