384
23.00800000 23.00800000 19.32000000
Ge    5.89866000    4.50885000   10.63158000     -0.203424    0.24670600    0.05240500
Ge    5.21014000    7.57067000    1.90800000     -0.548978   -0.93034800   -0.20414400
Ge    1.32416000   11.07883000    7.99621000      0.523314   -0.06528000   -0.08364700
Ge    5.24011000   10.79046000   18.42886000      0.588344    0.30578800   -0.50267400
Ge    4.54915000   14.96654000   10.12144000      0.327414    0.01004200    0.99063700
Ge    7.69836000   17.89111000    1.22062000      0.483857    0.24243500   -0.12123100
Ge    8.06282000   19.69710000    8.95826000      0.810568   -0.25445700   -0.45419800
Ge    4.21293000    3.22077000   18.52025000      0.895008   -0.84499500    0.84983200
Ge    9.15575000    5.77725000   10.94247000      0.794070    1.03738400   -1.22366100
Ge   10.95408000    5.92944000    1.40606000      1.062147   -1.53235900   -0.84091400
Ge   11.38696000   13.29443000   10.45232000      0.439259    0.38997900   -0.67434200
Ge   12.02262000   12.81961000   17.44913000     -0.660186   -0.11883500    0.19932400
Ge    9.62064000   17.13917000    7.44356000      0.138573   -0.18097400   -0.94518400
Ge   13.68392000   15.79657000    0.99734000     -0.042022    0.17149000   -0.57924300
Ge   10.80276000    2.13722000    9.65041000      0.698153    0.00157800   -0.06220900
Ge   16.10997000   21.34785000   18.96288000     -1.198477    0.86204400    1.22053800
Ge   19.32110000    5.36495000   10.51453000      0.162249    0.10132500    0.50153400
Ge   18.44204000    8.93488000   17.56833000      0.742375    0.50041100    0.15955200
Ge   21.45174000   13.90601000   10.24113000     -0.177889    0.53337800   -0.24421300
Ge   16.51780000   10.65237000   18.96889000     -0.428733    0.84654500   -0.08353600
Ge   13.89051000   17.26572000    8.05091000      1.381157    0.13295600   -0.13617700
Ge   18.57756000   13.77036000    1.63220000      0.320669    0.60220500   -0.52610900
Ge   20.00448000    0.71316000   10.43833000     -0.302265   -0.10165300   -0.01938700
Ge   17.38465000    2.06186000   18.57798000     -0.126346   -0.64385700    0.31771500
Ge    0.46173000    6.89684000    9.76205000     -0.259063    0.78293100   -0.02283900
Ge   21.66974000    3.07580000    0.15995000      0.663932   -0.26228800   -0.00442400
Ge    1.16868000   11.62855000   11.26278000      0.940794   -0.95860500   -1.13145900
Ge    0.47096000   11.30322000   19.05288000     -0.510505    0.17263500    0.08216000
Ge   22.87926000   14.54196000    7.59482000     -0.464958   -0.43989500    0.04958200
Ge    0.96195000   15.19405000   16.66819000     -0.766969    0.67557900    0.30060600
Ge   20.37774000   20.47805000    9.51054000      0.069091    0.61235500   -0.02732100
Ge    3.40888000   20.66572000    0.19387000      0.263506    0.96239900    0.11599300
Ge    6.00778000    8.47633000    8.26306000     -0.119998    0.49658700    0.03591100
Ge    0.58610000    6.21232000   19.19093000      0.166772   -0.16233700   -0.18628400
Ge   21.93023000    7.78749000    5.83096000      0.521121    0.14379800   -0.00597000
Ge    2.80176000   13.15343000   15.14167000      1.116055    0.63906000    0.53272000
Ge    5.71193000   16.46904000    3.69810000     -1.387902    1.46101300    0.78586300
Ge    1.51774000   19.79089000   18.08699000      0.068576   -1.00319800   -0.30178100
Ge    4.37097000   19.03821000   10.32166000      1.113241   -0.41665800   -0.16859600
Ge    3.14329000   22.91154000   16.23362000      0.755775   -0.35835100    0.25414100
Ge    8.20866000    2.89815000    6.80634000     -0.206419    0.51903900    0.11689900
Ge    8.39589000    3.71872000   19.10899000     -0.382501    0.60005400   -0.20180400
Ge    6.96085000   13.17242000    3.39694000      0.275340   -0.68001600    0.91641300
Ge    7.74702000    8.42248000    1.77932000      1.044734   -0.13317200    0.09024500
Ge    6.24419000   16.43159000    6.71673000     -0.602608   -0.35472400   -1.04923100
Ge    9.05690000   14.64544000   17.93411000     -0.234939    0.54244200   -0.64025300
Ge    9.87416000   22.92842000    6.29957000      0.485092   -0.06701800    0.20466000
Ge   10.25392000   21.26126000   14.09044000      1.048275   -0.27889400   -1.23849300
Ge   13.00734000    6.27346000    9.14799000     -0.158328   -1.12568400   -1.09006500
Ge   14.07941000    6.49252000   17.85849000      0.074450   -0.26171700   -0.23042100
Ge   12.59138000    9.99324000    8.95891000      0.643939   -0.30701400    0.62203800
Ge   15.99130000   13.20369000   15.38860000     -0.243929    0.44565100    0.25190800
Ge   14.06638000   17.30844000    4.72823000      0.325168    0.51253700   -0.35535600
Ge   13.99098000   18.64175000    1.67623000     -0.373247   -0.85653800   -0.08031900
Ge   14.83171000   21.63647000    8.69559000      0.004577    0.11226200   -0.50169300
Ge   16.63115000    1.77174000   14.86727000      0.568097    1.08058400   -0.82791800
Ge   20.40142000    3.75407000    7.10193000      0.104234    1.47871300    0.57298200
Ge   20.09625000    5.78751000   17.43423000      0.840291    0.14489300   -0.60515500
Ge   16.40870000   10.72364000    7.25645000      0.003620    0.20815800    1.04757300
Ge   19.47065000   15.36503000   17.45240000      0.486021   -0.62981400   -0.08801500
Ge   19.09483000   16.57216000    4.88228000      0.024563   -0.02366100   -0.74978100
Ge   20.07681000   17.92625000   16.17379000      1.016107   -0.07171700    0.28678000
Ge    0.16657000    2.68935000    4.55386000     -0.144036   -1.35765900   -0.39768800
Ge   19.72664000   22.20174000    0.29664000     -0.118416   -0.10847500    0.93932300
Ge    5.29037000    3.04600000    6.96429000     -0.128415    0.47323800   -0.48086800
Ge    2.27788000    4.73852000   15.22172000      0.335080    0.43225000    0.07808600
Ge    1.96659000    5.66623000    4.43062000      0.889457   -0.21660700    0.86202000
Ge    3.12089000    9.71159000   14.43978000     -0.072613   -0.48190800   -0.39368200
Ge    1.73201000   15.56117000    4.36697000      0.178860    0.29875300    0.44253700
Ge    1.32670000   18.11074000   12.97088000     -0.212596   -0.17930500    0.66897500
Ge    1.34454000    2.35253000    7.08851000      0.221155    0.08226300   -0.63421000
Ge    4.78279000   16.11594000   17.15723000     -0.342650    0.40360300   -0.59292100
Ge    9.09184000    3.16505000    3.22469000     -0.012584   -0.30562700   -0.30439600
Ge   10.63407000    2.28667000   16.43049000      0.545195   -0.70090800   -0.52668300
Ge    8.28116000    9.05313000    5.37313000      0.433702    0.28813300    0.30438700
Ge    9.58311000    8.38061000   14.35855000      1.941563    0.95067600   -0.86068600
Ge   11.24423000   14.19627000    5.49083000     -0.714097   -1.17020500    1.13055000
Ge   10.76056000   12.31030000   14.25559000      0.004228    0.45097600    0.29593200
Ge    5.75190000   21.18431000    2.46098000      0.334942   -0.00755600    0.62764900
Ge    9.54791000   18.81785000   17.38461000     -0.580120   -0.45250300    0.42332500
Ge   13.68157000    1.29006000    6.36574000     -0.050288    2.00007200   -0.38515400
Ge   10.53936000    5.45661000   14.79492000      0.008580   -0.40790800    0.31808700
Ge   15.58189000    6.12964000    6.46941000     -0.753360   -0.19927900   -0.18333900
Ge   13.51953000    9.56165000   14.74328000      0.845523    0.27049300    1.22872200
Ge   14.67765000   13.89915000    4.24842000     -0.179260   -0.86309500   -0.07905900
Ge   15.81632000   16.76067000   15.38569000      0.126755   -0.18545100   -0.66365100
Ge   10.41245000   17.40968000    3.01492000      0.445169    0.52577500   -0.29226500
Ge   12.84999000   22.27734000   17.08401000      0.546442   -0.13687900   -0.05008900
Ge   17.40626000    5.76793000    4.09083000      1.190947   -0.26354400    0.89104700
Ge   21.31346000    2.47899000   11.97186000     -0.321822    0.27544800    0.04499100
Ge   19.27565000    8.62652000    7.43944000     -0.403570   -0.37499300   -0.35609100
Ge   19.29421000   12.04211000   14.20590000     -0.540623   -1.49694400    1.47685700
Ge   22.70534000   14.75542000    0.88266000      0.164332    1.61316200    1.01391700
Ge   18.19944000   14.83954000   12.62032000      0.909772   -1.34561800   -0.13039400
Ge   20.34002000   20.37030000    5.55071000     -1.505750    1.65661600    1.56239200
Ge   22.88439000   20.85734000   15.50364000      0.200805    0.26909000   -0.59664200
Ge    5.50436000    2.94782000    2.99855000     -0.870950   -0.16541700   -0.35515500
Ge    6.41736000    4.98324000   16.25070000     -0.801400   -0.24221400   -1.15195200
Ge    4.03524000    9.62473000    4.53199000     -0.127845   -0.53190000    0.52428200
Ge    4.77280000    7.98283000   12.25174000      0.017357    0.91307800    0.49947400
Ge    5.97991000   14.63172000    0.14606000     -0.439792   -0.86233100    1.20317700
Ge    3.27867000   15.40563000   13.09101000      0.088049   -1.61123200   -1.17722400
Ge    4.40065000   22.20265000    5.72293000     -0.485600   -0.07200300   -1.22835100
Ge    7.61808000   19.64316000   12.47133000     -0.763093    0.09745000   -0.07487000
Ge   11.79764000    4.61446000    5.60629000      0.713237   -0.07524100    0.05789500
Ge    7.50650000    1.59636000   13.43750000     -0.655245   -0.20608000   -0.31741200
Ge   11.99712000   10.59855000    2.40697000     -0.037326    0.17324700   -0.19857400
Ge   13.18587000    7.16815000   13.86125000      0.106436   -0.23461100    0.38790600
Ge   10.34575000   13.95965000    1.72613000     -0.681652   -0.44195700    0.10834300
Ge    8.97721000   16.04267000   11.74951000      0.753210    0.35926700    0.19872900
Ge   12.00477000   22.56579000    1.44518000      0.856114   -0.40921000   -0.33415000
Ge   12.35857000   18.73064000   11.63014000     -0.518182   -0.52651300    0.41333600
Ge   21.20109000    0.63004000   17.90186000      0.692989   -0.50858100   -0.53382700
Ge   14.43480000    4.57253000   11.19616000     -0.376501    0.79040900    1.16073800
Ge   17.43190000    8.28308000    1.77749000      0.577248   -0.36492100    0.14450600
Ge   16.47441000    7.60831000   10.06573000     -0.499189   -0.13837800    0.45151700
Ge   17.94203000   11.36052000    3.68197000      0.151645    1.92373500   -0.86337200
Ge   19.36653000   14.81086000    7.44379000      1.845909   -0.17601300   -0.09786200
Ge   18.09489000   18.53620000    2.73088000      0.489593    0.23892100   -0.23633900
Ge   16.32804000   20.05712000   11.97280000     -0.822863    0.60377800    0.33273200
Ge    0.60251000    0.33173000    2.31704000     -0.061480    0.21146000   -0.23917400
Ge    0.72812000    0.52370000   11.21667000     -0.509414    0.05031400   -0.31687000
Ge   19.90152000    6.17927000    4.57777000     -0.399917   -0.55476700   -0.43408500
Ge   22.62634000    9.75854000   13.62066000     -0.657681    1.16268600   -1.88036500
Ge   21.47145000   12.97366000    3.29392000     -0.413160   -0.45334400   -0.07429700
Ge   22.46064000   18.16132000   10.13181000      0.095549   -0.76667100    0.21737300
Ge    2.75585000   20.37744000    3.79386000      0.663610    0.95346700   -0.22287700
Ge   20.12608000   17.12815000   12.22856000      0.445097    0.62854200   -0.05427900
Se    0.59348000    1.11394000   18.69997000     -0.682385    0.66215700    0.04762700
Se    1.60828000    3.15876000   10.70370000      0.444565   -0.18991500   -0.18614700
Se   22.59713000    6.33857000    2.47594000      0.444229   -0.08516300   -0.00272100
Se   22.75382000    7.54591000   12.61516000      0.528479   -0.68194700    0.40344300
Se    3.24316000   11.02912000    0.50707000      0.311879   -0.13432400    0.29770000
Se    1.82675000   13.11650000    9.65058000     -0.060956    0.87707200   -0.38424200
Se    2.35440000   18.01240000    3.89485000     -0.487553   -1.13976200    0.56729000
Se    1.18792000   19.99355000    9.80432000     -1.086820   -0.10445000   -0.12478400
Se    7.38592000    2.13313000    1.41705000     -0.157475    0.04614600    1.15056400
Se    6.32110000    1.43953000   10.98784000      0.053245    0.33303000    0.61248600
Se    7.92256000    5.77508000    2.22190000     -0.689046    0.01851600   -0.20441600
Se   10.56827000    7.45066000   12.15760000     -0.444247    0.48443600    0.70671300
Se    8.07864000   11.79908000    0.81615000      0.103282   -0.31392900    0.22978300
Se    5.78464000   14.99559000   12.69983000      0.508113    0.15805300    0.30320800
Se    4.95013000   19.01471000    1.51799000     -0.266748    0.87834600    0.02776700
Se    9.53695000   18.40987000   10.64202000     -0.203788    0.27201500    0.26063100
Se   13.83535000    3.34486000    0.83988000      0.001886    0.33995000    0.63603000
Se   13.10424000    0.53954000    9.68645000     -0.511726    0.22856000    0.58922800
Se    9.55192000    7.37861000    0.23858000     -0.733821    0.23677800   -0.66496100
Se    9.93609000    9.67085000    8.77507000     -0.872654    0.30885200    0.21499200
Se   12.19577000   12.62409000    0.59045000      0.448937    0.19948100    0.41076600
Se   13.63356000   11.82760000   10.67644000     -0.855445   -0.90023100   -0.44615300
Se   16.19267000   14.95590000    0.97827000     -0.248532   -0.33067300    0.12252800
Se   11.72319000   18.17130000    8.33028000     -0.754341    0.12432400    0.04788200
Se   17.01122000    3.63997000    3.07757000     -1.243570   -0.95342600    0.31777500
Se   14.64656000    2.21115000   10.83363000      0.282529   -1.23577300    0.84869600
Se   17.58020000    6.59905000   17.64319000     -0.188138   -0.73623000    0.22826500
Se   21.17783000    7.86478000   10.94693000     -0.097327   -0.64286400   -0.83118600
Se   18.71585000   10.41907000    0.75939000     -0.124636   -0.50271900    0.03470400
Se   17.62961000   16.11981000    6.79426000     -1.414597    0.35481400   -0.75049600
Se   19.72779000   16.50556000    1.32188000     -0.605960   -0.54921900   -0.32436100
Se   17.82961000   18.49561000   10.83244000      0.523423   -0.46666600   -0.48623000
Se    3.81711000    5.02201000    2.07928000      0.727844   -0.09874500    0.66448900
Se    3.19858000    6.50040000   11.25801000     -0.893083   -1.05127300    0.25913800
Se    4.77107000   10.07590000    2.19166000      0.411425    0.88019700   -0.51915600
Se    5.33333000   13.00450000   11.33722000      0.011673    0.31323100   -0.10304000
Se    4.18722000   14.62989000    4.06886000     -0.302156   -0.48746700   -0.48613000
Se    2.81994000   16.62003000   10.67731000      0.190577    0.17496400    0.46224900
Se    4.41398000    0.04120000   18.53724000     -0.522842   -0.48426600   -0.02482400
Se    6.57323000   21.00360000   10.22048000     -0.509612   -0.08208500    0.68765700
Se   10.69374000    6.50112000    3.62397000      0.034164    0.92372400    2.20670600
Se    7.84820000    2.81738000    9.69171000     -0.424499    0.61644800   -0.12513000
Se   10.44496000   10.96763000   17.00995000     -0.312312    0.11008300    0.36065200
Se    7.29586000   10.42967000    9.20757000      0.521638    0.06711500   -0.66150000
Se   10.18640000   17.16479000    0.26453000     -0.250367   -0.09454100   -0.00027600
Se   11.78058000   15.77740000   11.50674000     -0.668357   -0.42012100   -0.57039000
Se   14.13878000   22.95815000    3.04534000     -1.224690    0.84305700   -0.66332500
Se   11.96347000   21.04029000   12.15732000     -0.053941    0.40543200    0.51275200
Se   13.38193000    6.63835000    1.14331000     -1.201511   -0.03175700    0.14378000
Se   18.40014000    7.66804000   12.00522000     -0.203686   -0.64547100   -0.27773300
Se   15.31628000    8.28972000    0.15082000      0.590071    0.68894400    0.02275800
Se   15.18647000   10.03284000   13.03711000      0.739632    0.18063200   -0.06710400
Se   18.96758000   14.08550000    4.02770000      0.037837   -0.21254400    0.33909300
Se   14.63522000   14.07885000    9.62233000     -0.933063    1.11232100   -0.04520600
Se   16.98738000    0.37279000    1.29237000      0.532171   -0.46120400   -1.10014500
Se   13.89523000   19.35689000    9.82096000      0.659934    0.14086100    0.30675200
Se   20.98715000    0.86124000    2.04793000      0.468637   -0.04247100   -0.54931100
Se   22.83081000    4.79781000   10.94766000     -1.029234   -0.96707300    1.11158400
Se   20.29738000    6.26707000    2.09645000     -0.543339    0.34521600   -0.52304900
Se   22.09520000   10.69105000   11.17657000     -0.725995    0.35378700   -0.46302900
Se   21.37353000   12.98322000    0.27946000     -0.957210   -1.02120300   -0.50260600
Se   22.82989000   15.69084000   11.49131000     -0.558204    0.85773900   -0.05026900
Se    1.09553000   20.82301000    2.05919000      0.068349    0.26236500   -0.68669600
Se   20.38430000   20.66414000   13.99315000     -0.704868    0.80418500    1.22471400
Se    4.45945000    4.93799000    8.22015000      0.089405   -0.20286900    0.35035900
Se    0.31085000    6.08589000   16.68068000     -0.088917   -0.28410200   -0.12263500
Se    4.10336000   11.04370000    9.11613000      0.484693   -0.60905700   -0.63258600
Se    3.82751000    8.40736000   17.73304000     -0.343699   -0.23628800   -1.42492400
Se    4.51428000   18.28881000    7.59399000     -0.512079    0.35175900   -0.05574900
Se   22.79167000   18.42113000   15.22351000     -0.062891   -0.78335200    0.14151600
Se    3.90101000   22.17064000   12.13883000     -0.140454    0.11238300    0.65207800
Se    8.90493000    0.31718000   16.51561000     -0.811877    0.94700500    0.94845800
Se    6.75868000    4.55168000    4.37591000      0.500072    0.30004300    0.15201300
Se    5.90109000    5.03138000   18.54064000      0.295359    0.60618300    1.45508600
Se    6.36847000   10.74199000    5.20016000     -0.225483    0.36609800    0.02001300
Se    3.85499000    7.06297000   15.60903000      0.190676    0.08644600    0.01249900
Se    6.35117000   16.54042000    9.15595000     -0.409068    0.73765700    1.51228100
Se    6.95204000   16.52719000   18.35318000      0.797094    0.15817800   -0.76707900
Se    7.83691000   18.56545000    6.38908000      0.687723    0.25226500    0.72042900
Se    7.55849000   22.04906000    0.96055000     -0.279175    0.29866000   -0.16554300
Se   15.40356000    1.16150000    8.08413000      0.408100    0.34289200   -0.26123000
Se   12.70692000    4.10353000   15.60188000     -0.456024    0.54448500    0.18426800
Se   13.24817000    7.92752000   10.66824000      0.431512    1.84206700    0.19998300
Se   13.79914000   11.42217000   16.87682000      0.922297   -0.60727200   -0.88025500
Se   13.34272000   15.48294000    6.39570000      0.569388   -0.66012900   -0.19677100
Se   13.97564000   15.92255000   17.58901000     -0.005331    0.04093000    0.59133600
Se   12.48975000   22.30209000    6.38055000     -0.550748   -1.42383800    0.26341600
Se   18.00061000   20.71809000   17.72307000      1.701425    0.01141400   -0.48566900
Se   19.59545000    3.00112000    9.25778000     -0.540611   -0.32429400    0.24970600
Se   19.76160000    2.81974000   17.55669000      0.521406    0.31751500    0.46871000
Se   18.17324000   10.06375000    9.17000000     -0.432898    0.28486200   -0.49372000
Se   17.17919000   11.02174000   16.03335000      0.324651   -0.45378400    0.07386900
Se   15.54896000   16.22865000    9.55129000     -0.152785    0.49362500    0.01559800
Se   18.18925000   15.16642000   15.19555000     -1.117474    0.45198100    0.60060500
Se   18.48642000   18.89977000    8.41217000      0.537391   -1.37965300    0.23488200
Se   20.76977000   20.04178000    1.75417000     -0.876793    0.77440800    0.24745500
Se    4.80452000    0.40274000    7.68734000     -0.065327    0.95938600    1.05941100
Se    0.49753000    3.65492000   17.43550000     -0.208496   -0.13192400    0.33267800
Se    6.45104000    7.38026000   10.51229000      0.588643   -0.74484300   -0.26661900
Se    2.61170000    7.67723000    0.22140000     -0.177962    0.36856200    0.69550500
Se    3.98388000   14.87845000    7.85108000     -0.790754   -0.33545800   -2.07618300
Se    4.91030000   13.55410000   16.69452000      0.095123    0.86806200    0.65971700
Se    3.20757000   21.07460000    9.64931000      0.568126    0.67775300   -0.01247200
Se   22.86563000   16.75031000   18.90347000      0.139183   -0.84537000   -0.38437800
Se    9.04464000    0.59825000    8.70200000     -0.406437   -1.55525800   -0.17756800
Se   10.69987000    3.19356000    1.10455000      0.043426    1.54036000   -0.17461800
Se   11.72322000    4.56840000   10.38290000      0.523725    0.20552100    0.15757100
Se    6.54324000    8.38893000   18.65487000     -0.002386   -0.42467700    0.57208600
Se   10.06610000   13.84989000    8.31711000      1.016575   -1.06048400    0.06914800
Se    7.94948000   11.54152000   17.81517000      0.562834    0.71019300   -0.38834900
Se   10.09342000   21.30974000    8.58528000     -0.397496   -0.07953200   -0.34857200
Se   11.84148000   15.27750000   16.73050000     -0.387930   -0.11439200    0.20129600
Se   17.35057000   20.65914000    7.57197000     -1.311930    0.45561700    0.34096400
Se   15.34585000    3.98246000   18.59319000      0.046052    0.78023700   -0.61317600
Se   15.32624000    5.24930000    8.94912000     -0.157758    0.05454800   -0.00091300
Se   12.12428000    8.97466000    0.36029000      0.348900   -0.94993200   -0.16868700
Se   16.00208000   12.17888000    9.40942000      1.050931   -1.01276200   -0.45766900
Se   16.19916000   13.26047000   18.45623000      0.103310   -0.14162800   -0.53002000
Se   15.39534000   18.59903000    6.55375000     -0.705600   -0.47082300   -0.50691500
Se   16.37397000   19.07712000    0.67871000      0.462564    0.19647400    0.42441700
Se   21.82488000   22.67262000    9.20484000      0.553859    0.17811000    0.11855600
Se   22.72852000    1.14195000   14.92768000      0.419410    0.70954500    1.02237500
Se   20.81116000    6.51369000    7.84133000     -0.134112   -0.18090000    0.36759200
Se   21.00059000    8.55997000   18.14639000     -0.433328   -0.58578600    0.13421400
Se   21.46580000    9.60619000    7.54634000      0.136150    0.70204200    0.19520300
Se   22.00520000   10.32727000   16.98051000     -0.112894    0.30471700    0.46070100
Se   21.45920000   16.13014000    6.27725000     -1.292653   -0.30277000    0.48265300
Se   18.09734000   16.92242000   18.90146000      0.190271    0.48755600   -0.13710800
Se    2.57884000    1.31760000    8.98594000     -0.041848    0.01113700   -0.02415300
Se    4.19326000    3.15977000   16.18531000     -0.348255    0.10195200   -1.87808900
Se    1.19645000    8.22615000    7.41475000      0.198460   -0.49000300   -0.74714100
Se    0.88186000    8.83055000   15.26282000      1.539877   -0.49187500    1.70629600
Se    1.73562000   16.18371000    7.26919000      0.103069    0.28058900   -0.85062500
Se    0.92548000   12.55197000   16.80003000      0.194586    0.49721900   -0.33095600
Se    0.69696000   18.52364000    6.11873000     -0.024881   -0.11916000   -0.27419000
Se    3.13657000   20.11650000   16.21906000     -0.803463    1.02797800    0.06687100
Se    7.22360000    1.41243000    4.61226000      0.533274   -0.04708100    0.32040800
Se   12.11522000    1.35156000   18.33684000      0.010024   -0.47832500    0.07242900
Se    7.82100000    6.82424000    6.28571000     -0.328278   -0.43929400    0.74539300
Se    7.75948000    7.10319000   14.69945000     -1.758157   -0.82236800    0.54376900
Se    7.22191000   13.79751000    6.02807000     -0.012634    0.27643700   -0.03298600
Se    8.06829000   17.47362000   15.16876000     -0.521640   -0.91721600    0.03662100
Se    5.35232000   19.91704000    5.93887000     -0.198063   -0.08902800    0.35966100
Se    8.81314000   14.99325000   15.21482000     -0.175013    0.57751000    1.18672300
Se   15.13863000   21.35195000    5.79872000     -0.220847    0.01064400    0.06858900
Se   14.93642000    1.86935000   16.50918000     -0.577904   -0.68755000    0.70719800
Se   12.23834000    6.78314000    6.97265000      0.057766   -0.08847600   -0.14777400
Se   11.45575000    7.56219000   15.99206000     -0.572538   -0.24585400   -0.18893200
Se   13.20029000   11.24394000    4.78347000      0.345918    0.46949200   -0.29662900
Se   14.67184000   14.17815000   13.37126000     -1.134923    0.20560100    0.31987800
Se    9.41874000   15.80457000    5.16302000     -0.394788    0.62963700    1.12226300
Se   13.54317000   20.59523000    0.31518000     -0.387720    0.85974000   -0.78153900
Se   20.60797000    2.05018000    5.38566000      0.358768   -0.41630900   -0.93071300
Se   18.49311000   22.84603000   16.77253000     -0.074400    0.33798900   -0.23672100
Se   17.63659000    4.69164000    6.51822000     -0.014183    0.23004100   -0.42616000
Se   18.17961000    7.14050000   15.26729000      0.699731   -1.11670300    0.22460500
Se   20.45233000    9.70802000    3.62350000     -0.013840   -0.18661300    0.07590100
Se   16.49692000   12.98494000   12.55818000      1.390411   -0.32986300    0.21450700
Se   17.65842000   20.64641000    4.53104000     -0.393263   -0.97563000   -0.28545200
Se   17.43074000   22.83035000   13.75051000      0.618713   -0.96757100    0.63972400
Se    3.01420000    6.78747000    6.61367000     -0.134012    0.15937300    0.00388900
Se    3.67517000    4.67669000   12.87768000      0.182924    0.60399800   -0.51871200
Se    1.76833000    7.82706000    3.30409000     -0.218750    0.60664100   -0.03629300
Se    4.80909000   11.44251000   15.28942000     -0.424597   -0.54141300   -0.06751100
Se    4.63959000   12.65288000    6.61962000      0.736375   -0.00962700   -0.09117200
Se    3.44828000   17.56350000   18.70187000      0.124005   -0.63046900    0.01190400
Se    1.78786000   21.69918000    5.84636000     -0.277247   -0.10075400    0.01177800
Se    5.13073000    0.52392000   14.53270000     -0.475305   -0.49864600   -0.29434300
Se   11.34144000    2.49419000    6.96731000     -0.260323    0.19617000    0.05298700
Se    8.72606000    3.82224000   16.29191000      0.503945    0.79560600   -0.65379400
Se   10.35123000    9.96523000    6.41310000     -0.376830    0.13799300    0.48119500
Se    8.63185000   10.88000000   14.60404000     -0.607155   -0.27745200   -0.60825500
Se    8.66153000   15.56781000    9.19518000      0.214304   -0.61018800   -0.20735500
Se   11.29536000   17.84853000   16.03370000      0.704723    0.46486400   -0.63686000
Se    8.64813000   19.28953000    3.28922000     -0.269794    0.26714100    0.34708500
Se   10.56948000   21.24904000   16.48496000      0.473963   -0.16322400    0.39022100
Se   14.29368000    3.77096000    5.48303000     -0.304501    0.52057500   -0.07069400
Se   18.74837000    3.25828000   14.96099000     -0.721010   -0.06203700   -1.03501100
Se   14.52060000    9.25645000    7.40963000      0.234623   -0.29258700   -0.29180600
Se   17.19409000    9.19237000   14.26682000     -1.106400    1.44495900   -0.52016200
Se   16.76790000   12.53235000    5.64053000     -0.096652    0.04799800    0.45148600
Se   16.31135000   19.29646000   15.80002000     -0.851761   -0.18863800   -0.10492600
Se   15.99453000    0.61498000    5.50811000      0.073895    0.02705700    0.00675600
Se   18.72529000    3.32643000   12.29693000      0.583002    0.26583800    0.31164600
Se    0.01695000    4.14369000    8.18001000      0.212415    0.08825600   -0.77495900
Se   22.70250000    3.36160000   13.85314000     -0.039017   -0.21659700    0.46474800
Se   20.23801000   12.48659000    7.15015000     -0.055910   -0.34722200    0.04836000
Se   20.53811000   13.17788000   16.08675000      0.752912    0.14860900    0.18629500
Se   22.21954000   12.58039000    5.72752000      0.346555    0.22450400    1.07470500
Se   18.89951000   18.76336000   14.19007000     -0.241217   -0.84586000   -0.22433400
Se   21.64830000   18.98885000    7.77594000      0.219776   -0.28282600    0.19939500
Se   22.36084000   20.94182000   17.87764000     -0.744996    0.07631300    0.32663700
Se    3.33995000    3.45254000    5.09925000     -0.014765   -0.60742100    0.52018000
Se    7.18232000    1.62330000   17.96527000      0.351173   -0.42297400   -0.81457600
Se    2.35578000    4.26337000    0.37097000     -1.211360   -0.20050100    0.03848100
Se    2.91310000    9.58227000   10.55724000     -0.276542   -0.16949200    0.82143100
Se    1.40145000   11.69325000    2.90045000     -1.211345    0.01886600   -0.38563800
Se    2.70637000   16.82415000   14.81093000     -0.756300    0.88097600    0.45008100
Se    4.00613000   16.06130000    1.46103000     -0.216562   -0.33172500   -0.17000500
Se    5.03246000   18.98825000   13.60692000      0.531954    0.09204000   -0.27421900
Se   10.53609000    0.49999000    3.22442000     -0.305616    0.53954600    0.52694000
Se   11.12966000    0.66459000   13.73844000      1.013712   -0.03477400    1.36812800
Se   10.00718000    9.00858000    3.48953000     -0.238846   -0.42448800   -0.45593800
Se    7.53720000    9.03551000   16.59435000     -0.039847   -0.02038100   -0.51987700
Se    9.41674000   12.36965000    3.75486000      0.227406    0.34167200   -0.61852500
Se    9.56419000   12.77663000   11.98139000     -0.770268    0.16110600    0.28180700
Se    9.44621000   20.67366000    1.31099000      0.075294   -0.45423300    0.04434800
Se   10.08713000   18.39759000   13.71769000      0.361465   -0.01627100    0.48046400
Se   18.84220000   22.30911000    8.41443000      1.013718    0.78401400    0.02700500
Se   14.57457000    2.68891000   13.47373000      0.526833   -0.35246400   -0.78796800
Se   15.60821000    7.17578000    3.89434000     -1.036468   -0.01223500    0.12242600
Se   14.75997000    5.81218000   15.32047000     -0.518452   -0.40547200   -0.18370000
Se   15.82852000   11.93948000    2.15479000     -0.803607   -0.22648200    0.38580600
Se   16.78979000   16.65609000   12.57785000     -1.290432    1.46889500    0.38029200
Se   16.34643000   16.83481000    3.05941000     -0.754599   -0.59505900    1.21488800
Se   14.43183000   19.80390000   14.36811000     -0.079835    0.03274800    0.09212900
Se   22.93813000   22.85274000    4.80736000      0.204708   -0.25735100    0.42040100
Se   21.32208000    0.07184000   13.42844000     -0.115653    0.59915500   -1.05501700
Se   19.80346000    3.51322000    3.52898000      0.769998   -0.22792500    1.00110000
Se   20.35113000    9.66780000   14.17136000     -0.698914    0.63556100    0.25579000
Se    2.41226000   11.92168000    5.87558000     -0.296609    0.13211300   -0.03598600
Se   21.46917000   15.60887000   15.37949000      0.439690   -0.74887800    0.07671700
Se   21.86784000   19.24831000    4.39404000      1.980536   -1.77364100   -1.96379200
Se   21.39495000   19.58150000   12.17414000      0.698810   -0.69575900   -1.32054900
Se   22.76016000    4.91915000    5.41006000     -0.103331    1.12393800    0.78058100
Se   20.41380000    6.14540000   14.81034000     -0.322233   -0.22619400    1.15666100
Se   22.99959000    9.60409000    2.06012000      0.500834    1.00242700    0.76306500
Se    1.37675000   12.01766000   13.47908000     -0.937973   -0.67301300    0.97992200
Se    1.75210000   13.50045000    1.05362000      0.519011   -0.05360000    0.66651000
Se    1.69590000   22.11731000   13.11422000      0.731955   -0.21067200   -0.24896800
Se    4.39098000    0.28481000    3.36012000     -0.173293   -0.51965200   -0.23035500
Se    5.57596000   18.34458000   15.83624000      0.502110    0.06254500   -0.29418500
Se    8.96989000    5.25573000    7.91046000     -0.105372    0.13679500   -0.31234600
Se    7.79300000    4.75956000   12.45837000     -0.812990   -0.89846800    1.55003000
Se    5.37014000    7.33668000    4.33930000     -0.213075    0.29533400    0.07409500
Se    7.62192000   11.19756000   12.18154000      0.419836   -0.38956200    0.62582400
Se    7.51217000   15.58862000    2.45963000      1.082065   -0.77910000   -0.97400900
Se   11.80100000   14.79829000   13.69122000      0.136099    0.16066900   -0.05544500
Se    7.16060000   22.57476000    6.09607000     -0.475430   -0.44710400   -0.41821600
Se    7.93644000   21.65273000   14.09349000     -0.930202    0.04787600   -0.61010700
Se   12.48067000    1.90491000    3.49804000      0.656094   -0.87705700    0.27149200
Se    9.73811000    1.53664000   12.21961000     -0.660198    0.45425400   -0.98990000
Se   14.50891000    9.95012000    3.14416000     -0.223866    0.88899400    0.29708800
Se   12.03713000   10.49482000   13.22863000     -0.814306    0.12002300   -1.14088400
Se   12.02466000   14.92863000    3.39977000      1.575431    0.33656600   -1.79754300
Se   13.81493000   17.61847000   13.43531000      0.262067    0.08846000    0.27786300
Se   11.89596000   19.57124000    2.84691000      0.382460   -0.57008500    0.44982500
Se   13.86876000   22.95120000   14.79285000      0.040772    0.23515800    1.08223300
Se   18.08983000    4.38157000    1.23336000      0.257449    0.13887500   -1.64228800
Se   16.16407000    6.54700000   12.46631000     -0.163531   -0.13265900   -0.64379800
Se   18.01132000    9.17237000    4.41134000      0.631375   -1.55937400    0.36476000
Se   20.28519000   13.23686000   12.53276000      0.649334    1.15143100   -1.62846200
Se   21.89149000   15.42523000    3.30480000      1.098848    0.34309300   -1.28697500
Se   19.37289000   15.58796000    9.69284000      0.570044   -0.50905400    0.77398900
Se   19.41613000   21.63974000    3.36307000      0.937094    0.03754300   -0.51369100
Se   16.84201000   22.51839000   11.53497000     -0.127006   -0.25118600   -1.15895200
