384
23.00800000 23.00800000 19.32000000
Ge    5.90436000    4.40533000   10.71680000     -0.074873    0.79791400    0.25823700
Ge    4.90733000    7.49622000    1.91260000     -0.148519   -0.38866600   -1.41329300
Ge    1.39034000   10.92642000    7.88088000      0.566933    0.06037200    0.31560100
Ge    5.33875000   10.63143000   18.52750000      0.712773    0.25743600   -0.47727200
Ge    4.68014000   15.04918000   10.21598000      0.076272    0.53424600   -0.04193800
Ge    7.64102000   17.87381000    1.32537000     -0.391879   -0.01084800    0.23431300
Ge    8.08407000   19.76412000    8.84917000     -1.944108   -0.51685600    0.40494600
Ge    4.59612000    2.96672000   18.59228000      0.136352    0.04370700   -0.46238300
Ge    9.26376000    5.93955000   10.98081000     -0.764993   -0.21582000   -0.13818100
Ge   10.87729000    6.13922000    1.44609000     -0.568191   -1.79534100    0.96927500
Ge   11.63311000   13.55658000   10.30988000      0.020256   -0.50334800    0.58450700
Ge   12.06389000   12.94644000   17.49579000      0.278251   -2.65981200    0.26728500
Ge    9.63478000   17.09153000    7.18175000      0.841731    0.96791600    1.70671200
Ge   13.58527000   15.95381000    0.94014000      0.237129   -0.10461500   -0.35040600
Ge   10.90510000    2.12819000    9.73670000     -0.232523    0.44363500   -0.24684900
Ge   16.03908000   21.30592000   18.85204000     -0.169798    0.86924000   -0.32354600
Ge   19.37991000    5.56502000   10.62130000      0.306778    0.21171300    0.16720300
Ge   18.45784000    8.98937000   17.69584000     -1.036561    0.61189500   -0.01613100
Ge   21.41320000   13.87311000    9.97111000      0.737282    0.40794500   -0.37317900
Ge   16.36422000   10.57524000   18.90599000      0.691214    1.12006500   -0.11035600
Ge   13.95291000   17.32001000    7.95852000      0.441636   -1.03523300    0.62021900
Ge   18.67455000   14.02976000    1.55497000      0.331865    0.25595600   -0.51075000
Ge   19.99940000    0.68572000   10.30593000     -0.758221    0.00569700    0.35789700
Ge   17.19481000    1.83756000   18.45813000      0.594579    0.98098500   -1.58183500
Ge    0.54248000    7.01344000    9.97712000     -0.573769    0.02800800    0.08913400
Ge   21.81269000    3.06506000    0.27592000     -0.099104   -0.19597500   -0.32921400
Ge    1.11191000   11.61586000   11.11040000      0.668647    0.27903700    1.15792300
Ge    0.31073000   11.25779000   19.23067000      0.002996    0.08751600   -0.33324500
Ge   22.82994000   14.41706000    7.28820000     -0.320013   -0.65602800    0.89681500
Ge    0.97097000   15.58244000   16.60083000     -0.555472   -0.40865200    0.05539500
Ge   20.51795000   20.41002000    9.53468000     -0.162940    0.73336000   -0.36774700
Ge    3.49512000   20.85554000    0.29891000     -0.167786    0.17895400    0.10206800
Ge    6.19678000    8.46099000    8.31413000     -0.367962   -0.18069900   -0.21819300
Ge    0.72294000    5.98608000   19.20185000     -0.295197    0.64108000   -0.24865900
Ge   21.84597000    7.81760000    5.78888000      0.197021    0.12405000    0.26634700
Ge    3.04989000   13.31389000   15.44260000     -1.989945   -0.04060700   -0.48451500
Ge    5.86167000   16.46855000    3.83004000     -0.403366    0.09472200   -0.46938600
Ge    1.67141000   19.59761000   18.05320000     -0.251969   -0.23650400    0.73262800
Ge    4.43944000   18.89219000   10.21295000      0.557038    0.29912000   -0.32512200
Ge    3.03734000   22.72115000   16.06943000      0.588427    1.01545900    0.41008400
Ge    8.15163000    2.81622000    7.19664000      0.315461    0.58900700   -1.10560000
Ge    8.42154000    3.64394000   19.14770000     -0.482780    0.48121800   -0.22739900
Ge    7.09025000   12.86547000    3.44885000      0.181192    0.20815000    0.87858100
Ge    7.82832000    8.82719000    1.74583000      0.184617   -0.52241500   -0.66724000
Ge    6.16511000   16.30316000    6.59053000     -0.207034   -0.36170300   -0.26522600
Ge    8.95804000   14.51909000   17.85373000      0.060297    0.54663400   -0.46238600
Ge   10.05403000   22.65167000    6.22150000     -1.124553    0.75907400   -0.28589600
Ge   10.30782000   21.30865000   13.88746000     -0.982300    0.09733700    1.17125500
Ge   13.00083000    6.17557000    9.19495000     -0.009647   -0.08531500    0.24355500
Ge   14.09325000    6.52398000   17.88755000      0.238070   -0.45631600   -0.17124200
Ge   12.72185000   10.07031000    8.93680000      0.039854   -0.61975600    0.07417800
Ge   15.88463000   13.14056000   15.27982000     -0.031005    0.53577000    0.20845100
Ge   14.10948000   17.42294000    4.73855000      0.185630   -0.19967700   -0.45676400
Ge   13.80682000   18.55409000    1.74797000     -0.196812    0.44613100   -0.07033200
Ge   14.92854000   21.64398000    8.80297000      0.274612   -0.18435000    0.06430200
Ge   16.57920000    1.86324000   14.65100000      0.086622   -0.36851900    0.32472200
Ge   20.63748000    3.81524000    7.22956000     -0.187152    0.52167200    0.66067700
Ge   20.15069000    5.63923000   17.64197000      0.809528    0.13850800   -0.56228600
Ge   16.24056000   10.72313000    7.63083000      0.638794    0.40551100   -1.27023300
Ge   19.42770000   15.65447000   17.45520000     -0.166301   -0.48023800   -0.02173200
Ge   19.14489000   16.44735000    4.64156000     -0.452804    0.32252600    0.17564800
Ge   20.31396000   17.74439000   16.05670000      0.061578    0.70707600    0.54987600
Ge    0.17244000    2.55873000    4.36829000     -0.235390   -0.21708700    0.69020400
Ge   19.84010000   22.12030000    0.46392000     -0.011555    1.19926100   -0.63001700
Ge    5.31892000    3.08847000    6.89101000      0.083845   -0.20458800   -0.83068000
Ge    2.36583000    4.75371000   15.16015000     -0.070301    0.19941600   -0.29198200
Ge    2.00209000    5.69529000    4.58313000      0.362254   -1.04611400    0.42146400
Ge    2.93328000    9.47869000   14.36690000      0.083674    0.64848800   -0.32303800
Ge    1.65899000   15.63448000    4.32409000      0.481676   -0.26741900    0.60135800
Ge    1.37507000   18.07859000   12.91268000      0.067696   -0.67419100    0.39162100
Ge    1.41036000    2.46961000    6.89735000     -0.222753   -0.04169100   -0.14863900
Ge    4.66890000   16.03181000   17.15010000      0.138613    3.01347400   -0.21872500
Ge    8.95576000    3.30004000    3.40232000      0.256514   -0.12665800   -0.38389400
Ge   10.61626000    1.88680000   16.47611000     -0.953112    1.73227300   -2.43955900
Ge    8.24541000    9.05660000    5.32284000      0.265635    1.41427700   -0.34002300
Ge    9.86551000    8.50036000   14.27933000     -0.499207    0.36215400    0.33383000
Ge   11.32654000   14.07450000    5.48891000     -0.068093   -0.52608200   -0.06885300
Ge   10.61884000   12.40347000   14.37376000      0.136573   -0.07104600   -0.89648600
Ge    5.99028000   21.20413000    2.62576000      0.408139   -0.15696300    0.24580800
Ge    9.49274000   18.96231000   17.57107000     -1.013018    0.21641600    0.11918600
Ge   13.69770000    1.14792000    6.23330000     -1.185673    1.48428600   -0.12500600
Ge   10.44497000    5.39741000   14.63056000     -0.190062   -0.56090000   -0.06172600
Ge   15.41619000    6.00829000    6.53548000     -0.219889   -0.52256700   -0.58897400
Ge   13.59268000    9.63460000   14.74021000     -0.054229    1.16840600   -0.27438700
Ge   14.64785000   13.52234000    4.25106000     -0.064349   -0.55519000    0.49820500
Ge   15.64368000   16.86862000   15.45589000      0.439349   -0.70028300   -0.87674100
Ge   10.44544000   17.32511000    3.05115000      0.018629    0.82072000   -0.27207800
Ge   13.02098000   22.48296000   17.04422000      0.154844   -1.94405300    0.05265700
Ge   17.56496000    5.76614000    4.32215000     -1.411391   -0.21315400   -0.56771600
Ge   21.39825000    2.42994000   11.80685000     -0.447009    0.20593900    0.65853800
Ge   19.14702000    8.74727000    7.38000000      0.924474   -0.38955200   -0.19861000
Ge   19.33707000   12.13410000   14.29583000     -0.015762   -0.86795900   -0.48770600
Ge   22.72240000   14.85905000    1.00933000     -0.585212   -0.64304400    0.38830200
Ge   18.01284000   14.69752000   12.41854000      1.560800    1.05990700    0.16339500
Ge   20.23968000   20.55536000    5.55102000      0.926968   -0.66975400    0.53227300
Ge   22.98113000   20.98385000   15.51258000      0.074259   -0.66281300   -0.13238900
Ge    5.61025000    2.95091000    2.95889000     -1.497979    0.62097600    0.97651700
Ge    6.27643000    4.86445000   16.42700000      0.136817    0.08110000   -0.34031900
Ge    3.88447000    9.72849000    4.44881000      0.066182   -0.18724000    0.57901200
Ge    4.61552000    8.06407000   12.30838000     -0.009108   -0.09827200   -0.47009300
Ge    5.81956000   14.58313000   19.28733000      0.102674   -0.43225100    1.55491100
Ge    3.24591000   15.06102000   13.20867000      0.075528   -0.21764200   -0.25618600
Ge    4.43718000   22.20512000    5.57225000     -0.255007    0.44396200   -0.42374600
Ge    7.45589000   19.55784000   12.55619000     -0.258435    0.70975300   -0.32529500
Ge   11.73301000    4.57085000    5.56569000      0.703326   -0.15877500    0.60458700
Ge    7.32053000    1.41091000   13.41848000      1.218795    0.00703400    1.63337200
Ge   12.06669000   10.69640000    2.50968000      0.162013    0.03507000    0.44998900
Ge   13.20647000    7.25776000   14.04855000      0.269084   -0.72401100   -0.21030000
Ge   10.39432000   14.12189000    1.55899000     -0.577920   -0.51387900    0.35236300
Ge    9.21516000   16.03758000   11.77682000     -0.321489    0.44075100   -0.06099800
Ge   12.15931000   22.51775000    1.54014000     -3.401762   -1.19093800   -1.99033100
Ge   12.31499000   18.50897000   11.81944000     -1.145523    1.35663300   -1.42191100
Ge   21.39729000    0.49987000   17.72945000     -0.449245   -0.60033000   -0.49019500
Ge   14.68011000    4.65914000   11.29582000     -0.583122    0.04802400    1.39933500
Ge   17.35419000    8.14061000    1.90472000      0.134532    0.10475300    0.22459900
Ge   16.51311000    7.65455000    9.96546000     -0.382555   -0.20644500    0.68847600
Ge   17.93187000   11.42402000    3.69513000      0.043006    0.35500100   -0.05713400
Ge   19.53046000   14.83874000    7.40590000     -0.685030    0.36781300    0.16653000
Ge   18.19585000   18.63127000    2.53033000     -0.346037   -0.32956500    0.09708000
Ge   16.52727000   20.15574000   12.32296000     -0.223324    0.94159000   -0.01358900
Ge    0.55899000    0.41059000    2.21446000      0.598535    0.13029700   -0.49801200
Ge    0.76066000    0.60297000   11.00448000     -0.313828    0.06873100   -0.39889900
Ge   19.99032000    5.90570000    4.51150000      0.732794    0.58470300    0.33176600
Ge   22.54914000   10.06177000   13.46606000     -0.085916   -0.13698000    0.16262200
Ge   21.50627000   12.98079000    3.13196000     -0.138789   -0.27820000    0.62859300
Ge   22.37555000   18.24897000   10.19436000      0.170339   -0.98614000    0.03009200
Ge    2.78085000   20.43137000    3.76493000      0.287113   -0.31091600   -1.40085000
Ge   19.98640000   17.28189000   12.22716000      0.384118    0.36523400   -0.01849700
Se    0.53493000    1.00019000   18.72633000     -0.031852    0.64636000    0.35543400
Se    1.56906000    3.14576000   10.57167000      0.066958    0.03213700   -0.77977500
Se   22.70704000    6.17495000    2.43545000     -0.582954    0.26478000   -0.38405100
Se   22.86009000    7.68854000   12.65888000     -0.621208    0.21429400   -0.49008700
Se    3.15789000   11.08352000    0.18107000     -0.063798    0.04849500    0.45839900
Se    2.00442000   13.22617000    9.61063000     -0.604001    0.05089500   -0.07548100
Se    2.47936000   17.86328000    3.82861000      0.058854    0.28943800    0.04179200
Se    1.01096000   20.10328000    9.80393000      0.020270    0.43782500   -0.15961400
Se    7.32049000    2.13340000    1.59311000      1.083757   -0.47661900   -0.07427300
Se    6.23711000    1.59228000   11.44646000     -1.362086   -0.00896900   -2.03496200
Se    7.91811000    5.71637000    1.87510000     -0.044113    0.65464600    0.31648000
Se   10.60831000    7.64657000   12.15944000     -0.084898   -0.03318200   -0.21698800
Se    7.89324000   11.75980000    0.75467000      0.027711   -0.44406300    0.43779300
Se    5.81545000   15.02113000   12.93488000     -0.099411   -0.19057200   -0.02618700
Se    5.17233000   19.02805000    1.56028000     -0.604771    1.28698800   -0.06367600
Se    9.58944000   18.66141000   10.39165000      0.070561   -0.57387900    0.97038000
Se   13.89839000    3.18832000    0.91867000      0.467465    0.78036100   -0.17673900
Se   12.88554000    0.66362000    9.94876000     -0.172022   -0.64186500    0.00476900
Se    9.52212000    7.47353000   19.30579000     -0.752383    0.06601900    0.35505400
Se    9.92905000    9.60662000    8.76486000     -1.051552    0.13195200    0.53450100
Se   12.04559000   12.47580000    0.50819000      0.573164    0.30038400    0.72061900
Se   13.56494000   11.65148000   10.69458000     -0.526129   -0.07363800   -0.02168700
Se   16.12163000   14.66771000    0.91158000     -0.095919    0.27900400    0.41087400
Se   11.79557000   18.13021000    8.37120000     -1.236323    0.05379300   -0.05397400
Se   16.87354000    3.64795000    3.05439000      0.255669    0.36694500   -0.98014000
Se   14.53047000    2.00169000   10.88939000      0.824428    0.13285600    0.02965800
Se   17.77087000    6.57921000   17.77373000     -0.467609   -0.71634700    0.04519400
Se   21.05700000    7.91483000   10.82708000      0.882875   -0.73574700    0.30547400
Se   18.68851000   10.50249000    0.68555000     -1.017384   -0.61043100    0.25636600
Se   17.57020000   16.03587000    6.62998000      0.459226   -0.34007800   -0.57445800
Se   19.81307000   16.47170000    1.06826000     -0.301634   -0.25764700    0.43619800
Se   17.97552000   18.37050000   10.89077000     -0.194235    0.16800800   -0.18651600
Se    4.00569000    5.04810000    2.20582000     -0.403285   -0.40695300   -0.07540400
Se    2.97785000    6.43765000   11.31454000      0.646182   -0.33571200    0.70208400
Se    4.80356000    9.95348000    2.17025000      0.143360    1.09877200   -0.40728000
Se    5.34616000   13.11314000   11.46273000      0.183100    0.03289700    0.14690100
Se    4.18457000   14.59839000    3.86495000      0.249364   -0.10304300   -0.73904500
Se    2.81351000   16.71191000   10.82244000      0.160213    0.07634300    0.16138300
Se    4.54055000    0.02454000   18.46434000     -0.689047   -0.66196500   -0.05646100
Se    6.56277000   21.27801000   10.34682000      0.167487   -1.41656600    0.15724500
Se   10.73284000    6.67151000    3.93069000     -0.166715    0.02036700   -0.19923100
Se    7.68777000    2.81927000    9.60461000     -0.022555    0.68964900    1.11304800
Se   10.46362000   11.04657000   17.16531000     -0.318262    0.28682300   -0.38792700
Se    7.43251000   10.38910000    9.04366000      0.874250    0.24623600   -0.09743400
Se    9.83225000   17.34821000    0.33821000      1.600317   -0.28845500   -0.33359100
Se   11.71243000   15.97654000   11.44629000      0.367779   -0.55788400   -0.20634800
Se   14.00584000   23.00400000    2.56029000      2.679991    0.83487200    1.76261000
Se   12.02281000   21.01157000   12.35316000      0.914658   -0.24238500   -0.56105400
Se   13.19325000    6.80722000    1.24095000     -0.260472    0.20479800   -0.24276700
Se   18.32684000    7.73617000   11.93231000     -0.045261   -0.60492500   -0.40257100
Se   15.22469000    8.47761000    0.20492000      0.506338   -0.18884600    0.19661400
Se   15.12678000    9.94811000   12.81052000      0.599299    0.33652700    0.61226300
Se   18.96200000   14.02037000    4.03819000      0.344483   -0.34149000   -0.28841700
Se   14.49359000   14.27908000    9.62314000     -0.326570   -1.47929800    0.20691200
Se   16.98455000    0.59090000    0.99690000      0.066592   -1.68405000    1.03046100
Se   14.09930000   19.20927000    9.76146000     -0.144848    0.37610300    0.93097300
Se   21.11123000    0.93840000    2.19106000      0.058963   -0.41799500   -0.66694800
Se   22.76955000    4.63361000   11.20983000     -0.494756    0.83395400    0.55882100
Se   20.18875000    6.45958000    2.13885000      0.517710   -0.22141100   -0.64718500
Se   21.88791000   10.82026000   11.00283000      0.136156    0.36030800   -0.08036100
Se   21.23372000   12.81757000    0.39368000     -0.021497    0.76926000   -0.01096100
Se   22.47719000   15.66659000   11.54378000      0.433411    1.25485700    0.05963600
Se    0.95902000   20.91942000    1.97963000      1.041894   -0.19520800   -0.38551700
Se   20.11802000   20.75606000   14.13065000      0.500331    0.38735700    0.51272300
Se    4.49457000    4.82289000    8.18185000     -0.225711    0.48893700    0.81263700
Se    0.18653000    5.91796000   16.52227000      0.433789   -0.66094400    0.50666100
Se    4.02603000   11.01674000    9.11407000     -0.110083   -0.90142300   -0.05752300
Se    3.69740000    8.46589000   17.58248000     -0.802695    0.35255800    0.51424300
Se    4.47622000   18.27415000    7.30907000     -1.093888   -0.22362700    0.83132100
Se   22.70833000   18.15651000   15.36801000      0.350317    0.37183700   -0.14914400
Se    4.03684000   22.32539000   12.35880000      0.656334   -0.22482100   -0.12735100
Se    8.80757000    0.34843000   16.65203000     -0.774382   -0.80767000    0.33199600
Se    6.65303000    4.89342000    4.40620000      0.167462   -0.46230800   -0.23229300
Se    6.18369000    5.15814000   18.90402000     -0.189608   -0.71908500   -0.64072100
Se    6.26562000   10.78367000    5.21398000     -0.016463    0.06967900   -0.24047300
Se    3.59872000    7.25020000   15.63077000      0.630195   -1.02980100   -0.70647700
Se    6.34551000   16.71372000    9.06410000     -0.064784    0.51620900    1.00642100
Se    7.12605000   16.47496000   18.35979000     -0.563926   -0.41838700   -0.63906700
Se    7.99024000   18.51010000    6.05841000     -0.063627    0.36210500    0.65179400
Se    7.49847000   21.97067000    0.67215000     -0.369839    0.12476500   -0.00083000
Se   15.60236000    1.17600000    7.85943000      0.389376    0.33159000    0.26986900
Se   12.65098000    4.21814000   15.51487000      0.294825    0.09822300    0.10498300
Se   13.27971000    8.10725000   10.60605000      0.515356    0.22123300   -0.37665600
Se   13.88345000   11.29169000   16.85351000     -0.194299    0.26362300   -0.55736900
Se   13.38848000   15.43087000    6.34513000      0.762583    0.03223500   -0.16736700
Se   14.00402000   15.95878000   17.51811000      0.827401    0.35231600    0.91936500
Se   12.27146000   22.09637000    6.63206000      1.276009   -0.79677100    0.38129200
Se   18.22876000   20.67661000   17.60578000      0.499988   -0.59837900    0.75148600
Se   19.31097000    2.94685000    9.36222000      0.314181    0.27882700   -0.49685200
Se   19.90162000    2.62724000   17.49016000      0.291166    0.29410700    1.23884400
Se   18.21052000   10.22428000    9.15857000     -0.287436   -0.20587300   -0.09114900
Se   17.25541000   10.91410000   15.95711000      0.452757    1.18786800    0.73500500
Se   15.61460000   16.18618000    9.53213000     -0.110645    1.28210500   -0.26515900
Se   18.18907000   15.20030000   15.13428000     -0.858984    0.26387800    0.47232100
Se   18.51924000   18.57594000    8.54548000      0.126531    0.44187700   -0.17428100
Se   20.75454000   20.21047000    1.56028000     -0.158816   -0.64416400    0.60669800
Se    4.95239000    0.34501000    7.65929000     -0.327136    0.55997200    0.53357100
Se    0.30192000    3.49496000   17.48654000      0.450852    0.57788900   -0.19934200
Se    6.66866000    7.15884000   10.38387000     -0.009865   -0.53530300    0.58597900
Se    2.36142000    7.98527000    0.39855000     -0.012820   -0.43861100   -0.11952600
Se    4.05693000   14.73384000    7.82850000     -0.533784    0.28342500   -0.60233500
Se    4.99617000   13.87448000   16.67815000      1.376914   -1.42931500    0.48582800
Se    3.14771000   21.13382000    9.91565000      0.702521   -0.78724900    0.10532800
Se    0.01516000   16.54476000   18.81097000     -0.104849    0.90462900   -0.41983500
Se    9.06463000    0.63837000    8.79704000     -0.136432   -1.28668100   -0.23918000
Se   10.70883000    3.48711000    1.39781000      0.258978    1.02666200   -0.05532300
Se   11.94524000    4.41372000   10.48111000     -0.150822    0.51921400    0.57360500
Se    6.26436000    8.14438000   18.81066000      0.772474    0.50922800    0.21373800
Se   10.16074000   13.91220000    8.41231000      0.930256   -1.39271400   -1.11645000
Se    8.13558000   11.85998000   17.73102000      0.296512    0.01320600   -0.39189100
Se    9.86173000   21.22532000    8.48425000      1.343429    1.06067700   -0.25187800
Se   11.96959000   15.14211000   16.86790000     -1.332912    1.61002500   -1.05287900
Se   17.16543000   20.60453000    7.60193000      0.289349    0.07692200    0.74485300
Se   15.41260000    4.01529000   18.64486000     -0.729681    0.28335200    0.11831700
Se   15.13752000    4.95760000    8.94364000      0.781397    0.38367400   -0.65715900
Se   11.83100000    8.78406000    0.53659000      1.034945   -0.06020600   -0.34782900
Se   16.20869000   12.10221000    9.46045000     -0.441577    1.24581700    0.92543800
Se   16.34319000   13.28641000   18.34131000     -0.028087   -0.37836700   -0.74279900
Se   15.40228000   18.51310000    6.61427000      0.467809    0.49772400   -1.35252000
Se   16.35298000   19.13103000    0.57252000     -0.199787   -0.01743800    0.94505900
Se   21.89249000   22.71885000    9.18160000      0.480164   -0.06199300   -0.34730500
Se   22.68906000    1.25780000   14.96268000      0.403158   -1.19581800    1.81981300
Se   20.79689000    6.59723000    7.96449000     -0.322676   -0.19736600   -0.16413500
Se   20.67042000    8.45233000   18.06248000      2.012516   -0.38334000    0.13094800
Se   21.52598000    9.77067000    7.39450000     -0.760978   -0.00140700    0.23668800
Se   22.00823000   10.40387000   17.00760000     -0.027780    0.08651400    0.64319700
Se   21.32955000   16.15664000    6.42066000     -0.818693   -0.06941700   -0.14209800
Se   17.99477000   17.23285000   19.04077000      0.102958   -0.37366200   -0.71017800
Se    2.56184000    1.21397000    8.81974000     -0.155420   -0.02495200   -0.16221000
Se    4.15300000    3.14570000   15.95627000      0.180126    0.15875600    0.52304100
Se    1.18693000    8.25529000    7.30819000      0.164348   -0.64571200   -0.36339000
Se    0.75671000    8.75910000   15.38670000     -0.021270    0.35136800    0.05160300
Se    1.57075000   16.07377000    7.33357000      0.473969    0.55203200   -0.82548700
Se    0.81874000   12.61652000   16.85387000      0.384483    0.45526600   -0.15642200
Se    0.70163000   18.43145000    6.08033000      0.549759   -0.03049400   -1.25184000
Se    3.00914000   20.30585000   16.17997000     -0.153840   -0.39226400   -0.73926200
Se    7.07686000    1.36580000    4.74021000      0.771816    0.09752600   -0.08822000
Se   11.93866000    1.25246000   18.17513000      0.977122    0.49660900    2.39610000
Se    7.87286000    7.00594000    6.26590000     -0.587562   -1.38903800    1.39456700
Se    7.83154000    7.02657000   14.67295000     -0.236061    0.62153400    0.31023900
Se    7.30598000   13.84260000    6.11494000     -0.468898   -0.07326200   -0.15144600
Se    7.82509000   17.28878000   15.26042000      0.935486    0.01887600   -0.41622800
Se    5.36356000   19.95373000    6.06122000      0.550110    0.30855100   -0.32536000
Se    8.86433000   15.11193000   15.28354000      0.028078   -1.20701300    0.80121300
Se   15.00641000   21.39432000    5.86031000      0.484219   -0.79705300    0.12008800
Se   14.91595000    1.71833000   16.70009000      0.764338   -0.12592200   -0.67243700
Se   12.28684000    6.73120000    7.07949000     -0.303008   -0.08955600   -0.86532100
Se   11.48654000    7.31798000   15.89664000     -0.402319    0.28154600    0.56072500
Se   13.08606000   11.36257000    4.94687000      0.628530    0.28128300   -0.74399500
Se   14.55974000   14.19799000   13.35586000     -0.575152   -0.33675000   -0.33652600
Se    9.60872000   15.85423000    5.27753000     -0.160232   -1.07053100   -0.90256600
Se   13.38561000   20.71487000    0.37802000      0.387709   -0.43668800   -0.80604700
Se   20.59856000    1.92172000    5.12798000      1.245046   -0.85112900    1.82612000
Se   18.53782000   22.63480000   16.48551000      0.077468    0.92094400   -0.61870300
Se   17.74856000    4.64934000    6.45015000     -0.889933    0.23607600    0.53403100
Se   18.33243000    6.91191000   15.21061000     -2.936755    0.59022600    0.65092200
Se   20.25671000    9.81024000    3.61927000      0.883443   -0.09578800    0.04825100
Se   16.59666000   12.88768000   12.57288000     -0.615560   -0.77616600    0.37124500
Se   17.76300000   20.63157000    4.39886000     -0.744065   -1.15319700    0.04205000
Se   17.36661000   22.53190000   13.97195000      0.155381    0.29281700   -0.28852200
Se    3.07657000    6.75033000    6.51573000     -0.152430    0.51275800    0.84811400
Se    3.74219000    4.55193000   12.73334000      0.037385    0.66416400   -0.27278200
Se    1.84016000    7.66166000    3.23065000     -0.251252    0.73927700   -0.38403900
Se    4.62386000   11.61295000   15.14477000      0.398768   -1.89870800   -0.16973600
Se    4.74814000   12.72920000    6.74994000      0.913422   -0.47455800   -0.21422900
Se    3.65499000   17.53652000   18.64341000     -0.354938   -0.06830000    0.14129100
Se    1.80663000   21.60444000    5.70613000      0.309006   -0.02523000    1.12161000
Se    5.28853000    0.33080000   14.49814000     -1.047622   -0.71369200    0.42399200
Se   11.18342000    2.48550000    6.94782000     -0.213831    0.15616400    0.00198900
Se    8.87691000    4.08425000   16.21046000      0.375292   -0.52019400    0.25554600
Se   10.19622000    9.97506000    6.46521000      0.284110    0.46736300    0.00084100
Se    8.41115000   11.02201000   14.56155000     -0.330380   -0.48089000    0.29181800
Se    8.69018000   15.56031000    9.11172000     -0.246705    0.33359600    0.15541400
Se   11.07962000   18.05110000   16.02780000      0.845418   -0.43672200   -0.85891500
Se    8.49629000   19.15256000    3.46159000     -0.053031    0.35801600   -0.02251100
Se   10.56221000   21.25563000   16.45215000      0.401912    0.44438700   -0.15225300
Se   14.15184000    3.76533000    5.48782000      0.230884    0.82153000   -0.08314600
Se   18.80787000    3.13974000   14.86360000     -0.746387   -0.04818600   -0.16582100
Se   14.63559000    9.10390000    7.37983000     -0.035477   -0.51941700   -0.13978000
Se   17.05855000    9.30647000   14.36629000     -0.696825   -0.68807400   -1.16604300
Se   16.73441000   12.39393000    5.79253000     -0.229876   -0.07078500    0.67254400
Se   16.19649000   19.22770000   15.76056000     -0.835664    0.78028300   -0.06691400
Se   16.08565000    0.52536000    5.56981000      0.297260    0.10027100   -0.12655600
Se   18.80814000    3.26640000   12.47545000      0.772285    0.23409900   -0.72609400
Se    0.26792000    4.27034000    8.29678000      0.212195   -0.45617000   -0.75624900
Se   22.83433000    3.27509000   13.95272000     -0.385540    1.04630400   -0.99031900
Se   20.14086000   12.43594000    7.29486000      0.506451    0.01864200   -0.71169400
Se   20.52997000   13.19822000   16.10242000      0.721160    0.21558900    0.53215800
Se   22.21646000   12.50473000    5.66216000     -0.203184   -0.00933100    0.85409300
Se   18.97877000   18.73935000   14.20391000     -0.902856   -1.55907000    0.24270600
Se   21.96977000   19.02436000    7.56189000     -1.197626    0.31410300    1.57206900
Se   22.41961000   20.82701000   17.92438000     -0.139132   -0.00952400   -0.15797200
Se    3.19752000    3.14423000    5.20915000      0.144549    0.02594800    0.35821400
Se    7.00165000    1.75423000   17.82747000     -0.028181    0.20954200   -0.40898100
Se    2.55041000    4.36696000    0.41817000     -0.012827   -0.97008200    0.01003200
Se    2.81038000    9.61536000   10.87018000      0.236697    0.11650700   -0.51087000
Se    1.40649000   11.68552000    2.96903000     -1.317630   -0.11891500   -0.63994400
Se    2.94428000   16.84319000   14.85240000     -0.921267    0.23416400   -0.48386900
Se    4.01408000   15.99539000    1.56586000      0.403649   -0.42290400    0.06233300
Se    5.08409000   19.12164000   13.64350000      0.108053    0.10756300   -0.52208400
Se   10.47903000    0.65838000    3.33982000      0.227674    0.41030000    0.18708400
Se   11.20486000    0.72854000   13.86844000     -0.288257    0.46648700   -0.11777800
Se   10.06444000    8.98899000    3.45665000     -0.136450    0.15224100   -0.12210300
Se    7.55249000    9.11527000   16.64880000     -0.289788   -0.97104100   -0.23733600
Se    9.60096000   12.44057000    3.76221000      0.072398    0.27375700   -0.61293500
Se    9.42546000   12.91828000   11.87223000      0.513734    0.15743100    0.28678700
Se    9.35004000   20.69371000    1.18633000      0.104160   -0.32913400    0.04691100
Se    9.97122000   18.14393000   13.68752000      0.438199    0.77936000    0.24923900
Se   18.94652000   22.33546000    8.29292000      0.325273   -0.61614200   -0.13184100
Se   14.60475000    2.68119000   13.31164000     -0.046982    0.01649900    0.05502800
Se   15.47063000    7.18440000    3.88579000      0.620980   -0.73547700    0.14660200
Se   14.93146000    5.82362000   15.29487000     -0.884810   -0.29117000    0.27984600
Se   15.82220000   12.18320000    2.29829000     -0.825436   -0.41251000   -0.38362800
Se   16.69385000   16.80757000   12.78688000     -0.229931   -0.13454800    0.00490100
Se   16.31706000   16.79202000    2.95541000     -0.266274    0.20598200    0.98644400
Se   14.23132000   20.01039000   14.34889000      0.204320   -0.14820200    0.20522000
Se    0.14054000   22.77172000    4.65582000     -1.146418    0.54891900    0.49528500
Se   21.38554000   22.95953000   13.54468000      0.234259    1.01855700   -1.00598400
Se   19.81549000    3.49875000    3.77907000     -0.682664    0.68939100   -1.60892300
Se   20.24407000    9.65871000   14.11132000     -0.035943    1.07204100    0.16867600
Se    2.40543000   11.85977000    5.79526000     -0.049699    0.04460400   -0.25800200
Se   21.49666000   15.62671000   15.44809000      0.784701   -1.46450100   -0.71529500
Se   22.14937000   19.23694000    4.19329000     -0.396299   -0.05924800    0.47645800
Se   21.45821000   19.83579000   12.25016000     -0.052650   -0.36969600   -0.55662700
Se   22.63398000    5.07404000    5.44205000      0.775370   -0.45485000    0.30948200
Se   20.39510000    6.35919000   14.95502000      2.841540   -1.30418400    0.34444600
Se   22.78231000    9.58261000    2.13859000      0.679198    1.38576200    0.47148500
Se    1.30472000   12.03163000   13.73512000     -1.039049   -0.74960600   -1.48996400
Se    1.77630000   13.76967000    0.98704000      0.713475   -0.86604400    0.68938900
Se    1.83569000   22.32537000   13.00434000     -0.469207    0.05643300    0.52590300
Se    4.41568000    0.28032000    3.16900000     -0.251420   -0.53161400   -0.05426100
Se    5.74138000   18.20920000   15.74276000     -1.078184    0.62944800    0.47031700
Se    8.85058000    5.24662000    7.89855000     -0.030307   -0.33462100    0.07576800
Se    7.76708000    4.76157000   12.68413000      0.325108    0.32748800   -0.04093100
Se    5.24462000    7.12078000    4.22812000      0.020783    0.19462800    1.08464900
Se    7.64618000   11.13703000   12.33262000      0.222932    0.24562000   -0.13080200
Se    7.82111000   15.55322000    2.37420000     -0.622020   -0.34652300    0.38661400
Se   11.90295000   14.70057000   13.65549000     -0.066106    0.46699000   -0.07674900
Se    7.13866000   22.62233000    6.34367000     -0.662652   -0.18173600   -0.37766500
Se    7.79383000   21.61143000   14.14955000      0.343094   -0.22607300   -0.88825500
Se   12.59720000    1.86209000    3.36255000     -0.152332   -0.08778300    0.79037100
Se    9.56984000    1.54342000   12.29578000      0.738113    0.12496400    0.01588000
Se   14.59833000    9.91060000    3.30251000     -0.557834    0.96171400    0.45940400
Se   11.93106000   10.53261000   13.08499000     -0.479213    0.03836600    0.71123200
Se   12.16947000   15.06704000    3.15194000      0.559710   -0.14381200   -0.19702600
Se   13.59467000   17.68565000   13.52295000      1.336446   -0.52041900    1.57275800
Se   11.72181000   19.63286000    2.86119000      0.646645   -0.83906000    0.34730400
Se   13.94850000   22.93158000   14.79538000      0.001106    0.19218800    0.47105300
Se   18.22359000    4.10688000    1.07628000     -0.820786   -0.04086600    0.36399300
Se   16.19078000    6.52697000   12.60413000     -0.151789   -0.08784700   -0.82165600
Se   18.09097000    9.11919000    4.58840000     -0.013668   -0.60367700   -0.15360800
Se   20.24790000   13.22294000   12.06819000     -0.743994   -0.41545500    1.05703300
Se   22.18988000   15.52166000    3.40768000     -0.401026   -0.17827000   -1.18080000
Se   19.48472000   15.44507000    9.78056000     -0.389518    0.11297100   -0.55783700
Se   19.56040000   21.70813000    3.48880000      0.504419    1.04106600   -1.22899600
Se   16.88686000   22.48944000   11.34356000     -0.167611   -0.89983300    0.30227800
