384
22.54784000 22.54784000 18.93360000
Ge    6.38697000    4.54420000    9.71328000     -0.577115    0.74279600   -1.04815000
Ge    4.60484000    7.64420000    2.44797000      0.116552   -0.01808600   -0.42839500
Ge    3.17946000   12.56616000    7.01619000     -0.406275   -1.45346200   -0.85708200
Ge    6.55426000    9.56319000   17.38286000     -0.506898    0.10177800   -0.01316400
Ge    4.02720000   13.39252000   10.08556000      0.503761   -0.06678000   -0.21244300
Ge    8.76417000   17.59869000    0.09439000      0.006117    0.21073700    0.19968700
Ge    6.40138000   18.15344000    7.97751000     -0.484287    0.09518200   -0.49152900
Ge    5.01369000    2.02734000   16.05154000     -0.544112    0.83747200    0.39627100
Ge    9.35588000    7.35057000    9.22129000      0.024455   -0.34029000    0.25866100
Ge   11.13482000    5.74479000    0.68605000     -0.133778   -0.13100100   -0.31654700
Ge   12.36373000    8.05578000    8.65103000     -0.724514    0.41475700    0.58025200
Ge    9.58832000   11.81171000    0.52721000      0.488399    0.88037900   -0.08736100
Ge   10.57507000   16.40261000    9.48780000     -0.069393    1.35634400   -0.71874600
Ge   11.52997000   15.55134000    0.87855000      0.247936   -0.20848800   -1.60987100
Ge    9.96965000   22.36309000   10.75777000     -1.144194   -1.92541500   -0.28262600
Ge   13.51137000    0.70446000    1.30722000     -0.159875    0.36453300   -0.38134700
Ge   19.26662000    5.69577000   10.04586000     -0.821585   -1.98656200   -1.22575200
Ge   17.53738000    7.77899000   17.47206000     -0.450048    0.74943100    0.25238200
Ge   17.63524000   14.52510000   11.18422000     -0.328376    0.15496300   -0.21985100
Ge   17.55033000   11.32865000   17.64716000      0.137172   -1.44459900    0.08446600
Ge   13.33431000   15.01127000    8.02260000     -1.030307   -0.09791100    0.33956300
Ge   17.58485000   15.75587000   18.89614000     -1.344178    0.01563700    0.67504700
Ge   15.74650000    3.58363000   10.76244000     -0.427255    2.33041400   -0.33511400
Ge   18.27424000    2.40894000    0.11304000      0.135669    0.06363100   -0.95782200
Ge    1.87174000    5.57494000    9.81774000      0.053693    0.52382900   -0.18175900
Ge   20.41474000    3.39721000    4.83812000      0.480757    0.13099000    0.27548400
Ge   22.33070000   10.57898000   10.01331000      0.974323   -0.34484900   -1.77392000
Ge   20.61279000    9.27665000    0.21283000      0.681705    0.46065700   -0.43876700
Ge   20.32343000   14.79176000    7.69059000      0.065460   -0.41939100   -0.83624700
Ge    4.75163000   15.48163000   17.09341000     -0.470477    0.20531000   -0.11927200
Ge   18.33628000    0.27213000    9.17272000      0.497594   -0.16148700   -0.26482100
Ge    0.23554000   19.66226000    3.86294000     -0.786259   -0.64128700   -1.57455200
Ge    3.38106000    8.24751000    7.10389000      0.828941   -0.72617700   -0.08298200
Ge    2.12675000    7.97325000   18.36897000     -0.174943    0.73288200    0.53837600
Ge   21.03301000   10.40600000    3.69083000     -0.308398    0.44742300    0.96329600
Ge    4.57930000   13.13136000   14.51628000      0.017866   -0.52583700   -0.08243300
Ge    3.99673000   16.85701000    5.25231000      0.552626    0.03494700   -0.71730100
Ge    0.96960000   19.46013000   18.87547000     -0.708392   -1.73894900    1.30414600
Ge    2.62531000   17.98040000    9.87118000      0.891883    0.15153700   -0.21021200
Ge    1.38961000    1.58260000   17.67320000      1.264133    0.10012900   -0.03986000
Ge    9.71632000    2.80793000    8.35462000      0.074847   -0.49645800   -0.59134500
Ge    7.09830000    5.85925000   16.15240000     -0.098051   -0.40883300    1.06151000
Ge    8.57153000    8.67230000    4.43619000      0.380218    0.10619400   -0.27014000
Ge   10.68663000    7.30734000   16.61995000     -0.268661   -0.66070600    0.23971600
Ge    7.19749000   16.06631000    9.68639000     -0.308428   -1.23609900    0.32624200
Ge   10.04874000   14.77433000   16.61496000      0.784298    0.49736900    1.20206600
Ge   10.27157000   21.76599000    6.80164000     -0.154027   -0.07626500    0.28709200
Ge   10.57172000    0.91304000   13.46372000      0.145428    0.70502700    0.16715600
Ge   12.48950000    7.79447000    5.49766000     -0.549007   -1.56835500    0.52344600
Ge   15.06390000    3.00624000   17.01071000      0.615368   -0.29310300   -0.18816100
Ge   15.55874000    9.05335000    6.22852000     -0.797617    0.52457600    0.35676000
Ge   14.87887000   12.76800000   15.83033000     -0.440939   -0.94425500   -0.38314900
Ge   12.01532000   14.17151000    5.21091000      0.691353   -0.51499100   -0.23267000
Ge   15.23404000   19.61009000   18.74827000      0.895059   -0.24755400   -0.06886800
Ge   14.54096000   20.97855000    8.22420000     -0.447744    0.05284900    1.12860900
Ge   17.96949000   22.06168000   13.52374000      0.333461   -0.04858600    0.32436700
Ge   22.01962000    3.86309000    8.55501000     -0.135051    0.21443900   -0.35268200
Ge   19.58508000    5.61493000   13.62016000      1.707401    0.56037600    0.69911300
Ge   18.93060000   11.03625000    7.43343000     -0.109978    0.66810300   -0.10503800
Ge   21.99255000   14.84010000   16.31331000      0.586201    0.66761700    0.29462100
Ge   17.77320000   16.52289000    5.66414000      0.032885   -0.39824600   -0.23655900
Ge   16.20006000   18.00573000   15.52567000      0.532448    0.71449600    0.31563900
Ge   22.24349000    0.62762000    6.22669000     -0.518361    0.20133400   -0.27137200
Ge   19.19646000   21.81582000   17.48824000     -0.888106    0.53310300    0.27079200
Ge    6.74811000    1.11650000    7.19575000      0.475899   -0.06889400    0.16025600
Ge    3.67247000    2.50566000   13.00933000      0.247723    0.24907400    0.18145500
Ge    0.06763000    9.40828000    6.07038000     -0.050843    0.85432100    0.17967900
Ge    3.01434000    7.35633000   11.56049000     -1.148225   -0.27898000   -1.98148400
Ge    0.45031000   15.62459000    3.98067000     -0.042888    0.11127500    0.00033200
Ge    2.61173000   17.73931000   14.87798000     -0.254819   -0.05636600    1.07465400
Ge    4.46335000   21.32489000    9.73551000     -0.134561    0.62285100   -0.31950100
Ge    9.00167000   19.60974000   16.06150000      0.098982   -0.91855400   -0.14603500
Ge    5.95289000    4.21204000    2.91230000     -0.801633   -0.64056800   -0.19203700
Ge    9.28842000    2.68452000   16.63668000     -0.089046    0.60708500    1.32241800
Ge    7.05434000    6.09534000    4.93999000      0.276774    0.41788100   -0.25680800
Ge    8.58941000    9.85340000   13.63028000      0.350391    0.02661300    0.08171300
Ge    5.18639000   14.63503000    4.03854000      0.217574    0.69448000   -0.36077900
Ge   11.51093000   11.92382000   15.23658000      0.121780    0.36732700   -0.54857400
Ge    8.18570000   20.79288000    4.13595000     -0.209721    0.39716700   -0.35995600
Ge    9.35504000   16.22689000   12.93451000      0.591088    0.08636100   -0.43888900
Ge   12.46447000    2.19957000    4.92047000     -0.421039    0.84071300    0.20174600
Ge   13.05048000    4.41395000   14.79773000     -1.667507   -0.76685000    0.20025500
Ge   17.84283000    3.54001000    6.05847000      0.483372    0.08671000    0.80027400
Ge   14.67792000    9.41612000   14.36184000     -0.008150    0.14375900    0.62428900
Ge   14.95336000   13.84677000    3.11393000     -0.605087   -0.52007200   -0.27643300
Ge   13.36284000   15.71242000   11.57396000      0.027309   -0.60640000    0.69510700
Ge   10.05247000   18.10662000    4.46833000     -0.072344    0.63601600    0.16192700
Ge   12.20496000   20.47807000   16.56483000     -0.992956   -0.48768100   -0.76526300
Ge    0.69365000    6.23869000    5.94987000     -0.130474   -0.81170000    1.32157900
Ge   22.06720000    3.93828000   12.76839000      0.371291   -0.19501500    0.74320700
Ge   19.65517000    8.29847000    7.71722000      1.185075   -0.98903800   -0.04293300
Ge   17.06206000   10.57023000   12.01395000      0.568535    1.53843100   -0.53242600
Ge   20.32430000   16.85567000    0.47183000      1.206863    0.36837400   -0.18345000
Ge   19.31312000   15.66419000   13.80956000      0.499633   -0.73762700    0.26973400
Ge   18.60961000   20.95916000    4.88371000      0.784251   -0.32293800    0.81029200
Ge   21.41459000   20.73232000   13.15913000     -0.706570    0.87756300   -0.32311200
Ge    3.04336000    1.86835000    3.04066000      0.153790    0.07058600   -0.04914900
Ge    5.39595000    0.92448000   11.30916000      0.329438   -0.75088700    1.66331200
Ge    5.11801000    9.63460000    4.20445000     -0.381957    0.06030300   -0.80871100
Ge    7.21151000    4.69954000   13.72219000     -0.670289   -0.23729500    0.03501700
Ge    5.19171000   12.23031000    0.92870000     -0.001546   -0.00289600   -0.44697500
Ge    3.91855000   10.23346000   12.53135000     -0.232803    0.67704900   -0.46603500
Ge    3.50903000    0.73389000    7.89732000      0.199194   -0.66583200   -0.01732400
Ge    7.28463000   19.39245000   12.41793000      0.995527    0.13183800    1.11091800
Ge    9.44027000    3.80967000    2.37187000     -0.119026    0.02105400    0.50104100
Ge    9.86332000    5.08676000   11.42221000     -0.478021   -0.43776200    0.63094900
Ge   11.57526000    8.76400000    1.88514000     -0.108372   -1.04997800   -0.45018400
Ge   11.35507000    8.42369000   11.94156000     -0.055666    0.19697100    0.59991900
Ge    8.51470000   13.73345000    2.37519000      0.199553   -0.71865100    0.46768100
Ge    8.02176000   12.56429000   10.79165000     -0.014142    1.18382300    0.45101500
Ge   11.15386000   21.40481000    2.12404000      0.223127   -0.40765000   -0.04952600
Ge   11.92002000   19.44265000   12.55136000     -1.472145   -0.64821400   -0.65695300
Ge   22.24664000   22.16460000   16.60692000      0.195661   -0.23227200    0.16756700
Ge   13.32844000    1.06103000    9.37681000     -0.680535   -0.07022100    0.23346200
Ge   15.86573000    6.41728000    1.88492000      0.632318    0.27893500   -0.54933100
Ge   15.35826000    6.55471000   11.42533000     -0.224878   -1.56950400   -1.00895900
Ge   17.60270000   12.19850000    1.67056000      0.494839   -0.19864300    0.15882900
Ge   15.75331000   16.16849000    7.92929000      0.274377   -0.31087200    0.05691300
Ge   17.03480000   21.33898000    2.29666000     -0.596039   -0.13104100   -0.31137700
Ge   15.45669000   20.07394000   11.07416000      0.611675   -0.16019000   -0.12805300
Ge   20.18657000    1.26855000    2.77927000      0.409662   -0.06312200   -0.36267900
Ge    0.52182000    1.14104000   10.80336000     -0.373484   -0.18657900    0.28166700
Ge   22.02469000    6.92401000    2.07771000     -0.028170    1.61620200    0.94253200
Ge   22.37943000    9.10565000   13.94817000     -0.237024   -0.45373900   -0.46823100
Ge   20.65795000   12.99437000   18.75975000      0.918970   -1.60165100    1.05499200
Ge    0.10862000   15.37632000    9.20605000     -0.316094   -0.18006800   -0.20416700
Ge    4.25963000   20.78991000    4.98317000     -0.108136    0.32015500   -0.82340600
Ge   19.08618000   18.28211000   10.98712000      1.941569    1.78833200    1.03695800
Se   21.18862000   22.40814000    0.49603000     -0.738445    0.05317500   -0.02774900
Se    1.18436000    1.20987000    8.38149000      0.146334    0.19994500    0.38452400
Se    2.98170000   10.81862000    2.86377000      0.021369    0.02597100    0.31425500
Se    0.39056000    6.49156000   13.04729000      0.166187    0.31753100    0.78861700
Se    0.56122000   13.40380000   18.20056000     -0.657776   -0.20065400   -0.39060700
Se    1.02065000   12.88664000    9.15564000      0.146847   -0.05932200    0.17118100
Se    1.64112000   17.73027000    4.83861000      0.202541   -1.33767200   -0.15532200
Se    2.31347000   15.63858000   10.24539000      0.165997    0.07688400    0.66092000
Se    4.41563000    1.98303000    0.97239000     -0.449576    0.08428600   -0.44244900
Se    7.07166000    3.16136000   11.64473000      0.400242   -0.08339500    0.19779000
Se    7.12075000    6.18455000    2.07650000     -0.759361    0.94269700    0.48816400
Se    8.94668000    7.48389000   11.99519000     -0.278504   -0.13063200   -0.19131600
Se    7.90313000   10.04694000    0.83700000     -0.727017   -0.04212700    0.36252400
Se    6.07940000   11.06033000   13.71335000      0.708369    0.69597700   -0.08832500
Se    5.17688000   20.58418000    2.05041000      0.506991   -0.01068900    0.60438400
Se    9.37337000   18.34493000   11.31195000     -0.089889   -0.18433900   -0.41816100
Se   11.42101000    2.15077000    0.54514000      0.470739    0.24532500    0.70740500
Se   12.92811000    2.21155000   13.76572000      0.669285    0.08727400    0.61820600
Se   12.29408000    7.96488000   18.58509000     -0.662600   -0.18028700   -0.46194700
Se    9.14162000   10.03450000    9.43739000      0.528992    0.02684800    0.25259000
Se   12.66813000   15.17697000    2.92578000      0.467726   -0.44645400    0.42872900
Se   12.53882000   10.67848000    7.77304000      0.264962    0.08855100    0.50748700
Se   13.82289000   17.93328000    2.21719000      0.720932    0.92684200    0.46288400
Se   13.33748000   17.35985000    9.74756000     -0.280791    0.32515200   -1.14345900
Se   18.61048000    3.97775000    2.01966000      0.259954   -0.53119800    0.80146200
Se   16.88980000    2.13622000   12.84507000     -1.672961   -0.83204600    1.40063000
Se   15.10786000    8.11356000   18.92925000      1.209794   -0.17942800   -0.16771400
Se   17.84044000    5.16105000   12.06144000     -1.181518    1.03619800   -0.47234800
Se   18.30961000    9.31713000    1.26693000     -1.051734    1.44882400   -1.59720900
Se   16.75855000   14.12619000    6.16295000     -1.605828    1.09897000   -0.78382400
Se   20.39820000   19.56012000    0.68936000      0.747772    0.70511400   -0.34762400
Se   17.25504000   19.78265000    8.13467000     -0.167842    0.27323900    0.04715100
Se    1.03594000    0.72365000    2.61571000     -0.729087    0.35407900   -0.29940800
Se    6.72330000    7.28629000    9.11295000     -0.143059   -0.53365500    0.50054900
Se    7.19950000   10.67647000    3.23183000     -0.112388   -0.02278400   -0.05153300
Se    4.79779000   10.79618000    9.12675000     -1.153967    0.57693000   -0.31729900
Se    4.10691000   14.63006000    1.64035000     -0.930353   -0.40475500   -0.35174600
Se    3.05773000   13.05524000   12.32792000     -0.304882   -1.22304900    0.98344200
Se    3.17415000    0.02669000   18.66433000      0.145853   -0.14319800    0.04904400
Se    6.27178000   19.65750000   10.14759000     -0.136307    1.07094000   -1.37870500
Se   11.98438000    5.85204000    3.84787000      0.315428   -0.07431600    0.82595600
Se    7.74733000    4.11232000    7.58894000     -0.843809   -0.60845300    0.51748100
Se   11.64069000   11.05536000    1.94899000      0.285347    1.55487500   -0.61487400
Se    6.71967000   10.58020000   10.30433000      0.249475   -0.99013900    1.08206600
Se    9.50603000   15.95197000    2.26518000     -0.023380    0.46575900   -0.41955700
Se   12.80273000   13.30271000   13.05004000      0.482392   -0.76705700    0.60899500
Se    9.87574000   21.39583000   18.01300000      0.012833   -0.28015400    0.20779900
Se    8.25029000   22.22430000   12.58163000      0.030449   -0.20293400   -0.76523000
Se   15.15122000    5.08867000   18.79747000      0.053135    0.49135800    0.70562100
Se   16.77611000    6.33187000    8.61932000     -0.229876   -0.13360800    0.85234000
Se   14.73748000   11.00215000    0.48859000     -0.008560   -0.13751600   -0.44011500
Se   15.31818000   12.28295000   13.35546000     -1.018678    0.15678600    0.05023100
Se   18.41329000   15.53411000    2.28185000     -0.076783   -0.25363300    0.35038300
Se   16.34372000   11.01286000    9.56245000     -0.224560    0.37856700    0.31173800
Se   16.82839000   22.29183000    0.08299000      0.457895   -0.15485000    0.21082300
Se   15.38481000   19.47468000    6.59728000      0.658242   -0.09202900   -0.25711600
Se    0.01753000    3.15268000    1.87354000      0.288481   -0.67634300    0.13085600
Se   21.53293000    5.45662000   10.91862000     -0.001454    0.08994300   -0.70389000
Se   21.41826000    5.47931000    0.30962000     -0.701267   -1.22293600   -0.69463000
Se   21.22263000   10.90631000   12.02849000     -0.668451    0.50499400    1.70639600
Se   19.56554000   14.83634000   17.68198000      0.011292    0.02127000   -0.51516600
Se   20.68364000   16.33485000   11.70946000      0.506946    0.27638900    0.59878700
Se   20.88514000   21.86713000    4.21587000      0.591189   -0.20388200   -0.37114600
Se   18.15425000   21.07768000   11.12357000     -0.315815   -0.05230800   -0.47690100
Se    3.90671000    5.50396000    8.44338000      0.135183    0.01056500   -0.02119700
Se   21.68432000    2.32809000   18.67934000     -0.305511    0.13396100    0.54158600
Se    2.06813000    9.91728000    8.13415000     -0.089249    0.58512600    0.39546600
Se    0.92142000   10.38699000   18.26345000      0.481562   -0.77246100   -0.41827600
Se    3.65629000   18.20580000    7.36568000      0.888752    0.31633600    0.81814200
Se   22.38760000   18.03524000   14.86605000      0.885341   -0.49752900    1.04866400
Se    0.13415000   18.84062000   12.74238000      1.216158   -1.40077600   -1.12639600
Se    1.90446000   20.80033000   17.19906000      0.343336    0.44154100   -0.85249700
Se    2.92057000    4.26337000    5.98541000      0.998578    0.88040300   -0.91166100
Se    5.54594000    6.58008000   18.31169000     -0.103879   -0.26530300   -0.19837700
Se    5.76155000    9.28241000    6.52613000     -0.488659   -0.15289000   -0.29668800
Se    3.88439000    7.25538000   16.75973000     -0.403946   -0.17121900    0.24310100
Se    6.09117000   14.27590000   11.59784000      0.762334   -0.02695600   -0.58647000
Se    6.36620000   16.87790000   18.55645000      0.459876    0.58066000   -0.12514600
Se    9.20195000   19.31325000    6.80434000     -0.483633   -0.46163500    0.45106400
Se    7.17045000   19.25575000   17.75592000     -0.354778    0.28627200    0.32934700
Se   10.89878000    1.85875000   10.81720000     -0.037253    0.99983100    0.52127200
Se   12.00032000    4.62670000   16.99772000     -0.320919   -0.00346500    0.26650900
Se   13.93987000    6.68325000    7.42701000      0.069935    0.92510800   -0.78796500
Se   13.42593000   10.71493000   16.42464000      1.367188    0.63949000    0.22616600
Se   10.84213000   14.61848000    7.27777000      0.306060    0.11658200    0.30952800
Se   14.35154000   15.91966000   17.69817000      0.262613    0.39410000    0.89319400
Se   12.41465000    0.44012000    6.81537000      0.515730    0.23282400    0.61838600
Se   13.66132000   21.55557000   18.18135000     -0.031622    0.50085500    1.45290200
Se   13.28058000    3.43868000   10.84946000      0.600352    0.27578200   -0.33263100
Se   21.89273000    2.96402000   15.74909000     -0.771573    0.39219500    0.17601100
Se   18.96511000   11.82482000   10.37322000     -0.742695   -1.22745400    0.07038400
Se   17.20218000    9.64387000   15.61208000     -0.464599    0.12519100    0.44508700
Se   13.79321000   16.31799000    5.70753000      0.291722   -0.89364200    0.41197400
Se   20.57831000   13.30756000   14.69534000      0.108132    0.47841800   -0.46912300
Se   19.75141000   20.96592000    7.42398000     -0.840919   -0.05971900    0.03549300
Se   18.91118000   19.69027000    2.49282000     -0.509711   -0.68107100    0.41590000
Se    4.84660000    2.17755000    9.46477000     -0.236659    1.32336700   -1.82799700
Se    3.03493000    3.56879000   18.29842000     -0.494991   -0.85935600    0.30375300
Se    9.56183000    9.67461000    7.22376000      0.186687   -0.05637200   -1.57372900
Se    4.12231000    9.64313000    0.62678000      0.247773   -0.33306800    0.58261700
Se    6.88841000   16.73092000    5.87468000     -0.390341    0.60446400   -0.54793800
Se    5.46659000   12.39574000   17.10436000     -0.557084   -0.43269900    0.77142900
Se    1.22137000   20.05048000   10.08789000     -0.635320    0.49468100    0.02601400
Se    2.23941000   17.50476000    1.63663000     -0.487324    0.75455400   -0.18139700
Se    8.54939000   22.07296000    8.78889000     -0.515089    0.22394200   -0.29782600
Se    7.41749000    3.20756000    1.00686000      0.251099   -0.32010100   -0.54206700
Se   10.91102000    4.72899000    9.20320000      0.133421    1.22392300   -0.31433400
Se    8.72059000    6.11416000   18.03844000      0.900949    0.21891100   -0.41979500
Se    8.67468000   12.31527000    5.93698000     -0.218852   -0.18204800   -0.39519300
Se    7.89683000   13.95413000   17.36844000     -0.127818    0.07052300    0.43469400
Se   11.78567000   20.74071000   10.20778000      0.028984    0.28698400    0.67405100
Se   11.67833000   13.29355000   18.43346000     -0.597477    0.84445100    0.09005100
Se   15.51631000    0.69549000    8.03264000      0.733308    0.36369800   -0.77159700
Se   15.76210000    2.62210000    0.62432000     -0.980501   -0.31709200   -0.44453200
Se   16.14026000    4.05843000    8.15375000      0.138770   -0.30078300   -0.00470800
Se   13.89904000    7.43581000   15.86884000      0.601113   -0.41553500   -0.70190000
Se   17.23853000    9.03185000    8.31369000     -1.400323   -0.14501000    0.52133300
Se   15.29781000   14.08935000    0.32249000     -0.056285   -0.15364100    0.92306300
Se   12.61592000   18.43304000    5.75145000      0.106966   -0.09266500   -1.04998400
Se   17.67025000   18.10254000   18.28584000     -0.536674    0.03642800   -0.17900400
Se   20.77567000    2.08240000    9.80055000      0.107275   -0.06565700   -0.28267400
Se    0.58955000   21.99676000   14.34817000      0.139614    0.31232500   -0.73234700
Se   19.51250000    7.89711000   10.21951000      0.355125    2.99167200    0.28758700
Se    0.03638000    6.47942000   17.49277000      0.167226    0.02804700   -0.54909700
Se   21.17887000   11.73567000    7.14152000      0.403457   -0.09196300   -0.18004200
Se   20.00551000   11.12492000   16.99223000      0.158297   -0.08808600    1.05643600
Se   19.02762000   16.89880000    7.66040000      0.037815    1.01659800    1.27002900
Se   19.00307000   16.60463000   16.00583000     -0.201167    1.44291900   -0.80096000
Se    2.73742000   21.82984000   11.36805000      0.327692   -0.06641700    0.28308600
Se    2.19968000    1.93297000   14.93639000      0.211590   -0.07028300   -0.21879700
Se   22.19458000    7.76030000    8.16463000      0.110524    0.01490300   -0.41627600
Se    1.66920000   10.00322000   15.85952000     -1.969368   -0.01262000    0.06181100
Se    3.41945000   15.01365000    7.06138000     -2.473910    1.64441100   -0.74320400
Se    2.72395000   13.49007000   16.31605000      0.740779    0.14419700   -0.71784400
Se    0.30303000   17.30016000    7.25637000      0.105009   -0.66982800    0.30810700
Se    3.64753000   19.70923000   13.92733000      0.078035    0.91081300    0.49702000
Se    6.61059000    0.29055000    2.60431000     -0.404608    0.34196400    1.20588100
Se    7.34254000   21.93578000    0.71982000      0.249453   -0.98802800   -1.29820900
Se   10.06036000    7.10103000    6.58552000      0.014507    0.27545600   -0.42261600
Se    4.50820000    4.48233000   14.51401000      0.768959   -0.55550200   -0.29197500
Se    4.93837000   12.46982000    4.67900000     -0.277020   -0.99383400    1.20305400
Se    9.20429000   13.71903000   14.70092000     -0.027061    0.26155700   -0.79489000
Se    6.97428000   18.01010000    3.57526000      0.952130   -0.12040200    0.97697400
Se    7.91053000   17.68029000   14.25908000     -0.318796    0.11450500    1.06051300
Se   14.23314000    0.60024000    3.70966000      0.087237   -0.66298100    0.14857300
Se   13.82463000    0.39242000   16.18956000     -1.491225    0.64888600   -0.67663400
Se   13.47616000    9.86169000    4.63615000     -0.118416    0.47622000    0.07071900
Se   10.75685000    5.51762000   14.05458000      1.219566    0.83330300   -0.18258600
Se   13.80955000   12.37873000    5.67612000     -0.034033    0.89313000   -0.28048500
Se   13.49060000   14.73851000   15.87148000     -0.544674   -0.00034200   -0.97509000
Se   11.64557000   19.25829000    7.71469000     -0.223744   -0.26149900    0.86047400
Se   12.02514000   18.99147000    1.18544000     -0.622828    0.27839500   -0.41940100
Se   19.25390000    1.38121000    6.43044000      0.345167    0.82038000    0.11195400
Se   18.95685000    1.30824000   16.04194000      0.553260   -0.05980400    0.34818100
Se   19.92381000    5.18871000    7.38067000     -0.253269   -0.33668800   -0.24167600
Se   18.89108000    6.26653000   15.95472000      0.153691   -0.23946000   -0.19258500
Se   18.87942000   12.29175000    4.02591000      0.302772   -0.30611200   -0.56051600
Se   17.08510000   14.66526000   13.60143000      0.369378   -0.08622600   -0.60716300
Se   16.59737000   18.35713000    4.40525000      0.203299    0.03705800    0.02837600
Se   16.77595000   20.50281000   16.05948000      0.095882   -0.77812600    0.06038400
Se    1.98272000    8.04115000    4.99689000      0.600039    0.36959200   -0.47886900
Se    2.84031000    6.56796000   13.73743000     -0.498194   -0.19563400    1.15620500
Se    1.49052000   11.54406000    4.93094000      0.051196    0.32954500   -0.11274900
Se    3.81793000   10.04106000   15.03252000      1.231057    0.18767600    0.00931200
Se    5.44403000   14.63016000    7.87937000      2.721540   -0.20764600    0.94599700
Se    3.53319000   17.93987000   17.36634000     -0.035183   -1.06711000   -1.07338900
Se    2.56652000   20.62750000    6.83780000     -0.257310   -0.28000900    0.54749600
Se    5.41234000   22.40835000   14.86352000      0.563598   -0.79271100   -0.22896900
Se    9.05196000    1.04652000    5.71517000     -0.449864    0.14837200   -0.43559100
Se    7.07837000    1.67514000   17.58723000      0.221223    0.05859400    0.36421300
Se   13.53458000   11.62160000    9.78017000     -0.331262   -0.77221500   -0.63871000
Se   10.01343000   10.39316000   17.36660000      1.557432   -0.88138800    0.68930200
Se    8.19668000   13.77138000    8.70751000      0.183619    0.69078000    0.14609600
Se   11.87692000   16.97182000   13.53575000      0.006262    0.42652000   -0.25393500
Se   11.00200000   20.63801000    4.59999000      0.313966    0.16424900   -1.09610600
Se   10.52964000   17.47623000   17.25956000     -0.182006    0.01101000   -0.24674000
Se   10.92748000    4.11311000    5.79614000     -0.157525    0.29943700    0.15810500
Se   17.68267000    4.44011000   17.32896000     -0.362831   -0.52960400    0.08024300
Se   17.05270000    7.32928000    5.50715000      1.443989    0.57771600    0.07663400
Se   16.45888000    8.33956000   12.36593000      0.703758    0.00081100    1.11994600
Se   17.15333000   10.98455000    5.28412000      0.423271    0.00551200    0.15513500
Se   13.96160000   18.58459000   16.83043000     -0.029590   -0.95004000   -0.55978200
Se   15.75138000    2.39566000    4.65706000      1.191469   -0.30510100   -0.44165600
Se   18.95688000    2.88710000   12.44405000      1.966585   -0.23427900   -0.07974700
Se    0.30419000    3.30112000    5.60362000     -1.066951   -0.73541000    0.37291900
Se    1.15404000    4.35506000   16.34090000      0.500372    0.34206800   -0.52507100
Se   18.04090000   13.58952000    7.91801000      0.962963   -0.96279800    1.35801200
Se    0.12496000   13.05198000   13.49323000     -0.250758    0.08358800   -0.17658400
Se   19.80383000   15.18643000    5.09756000      0.578119    0.25741600   -0.21158900
Se   19.40009000   19.40829000   13.86891000     -0.074134    0.47202300   -0.39005200
Se   22.02055000   18.48844000    9.09849000     -0.717902    0.09057500    0.50777600
Se   20.57616000   20.25782000   16.23931000      0.402252   -0.40029700    0.05208400
Se    3.38634000    0.73425000    5.24167000      0.628962   -0.06696900   -0.20253400
Se    7.08636000    1.89699000   14.34321000     -0.129310    0.26962900    0.28826300
Se    1.91106000    7.24889000    1.80422000      0.314068   -0.14145800    0.05953700
Se    5.36199000    7.27269000   11.38688000      1.439535    0.29621500   -0.00686200
Se    1.53100000   14.26003000    1.76665000      0.041731    0.75398700    0.77835700
Se    5.81140000   15.39322000   14.62076000     -0.370968    0.27036800    0.18924300
Se    4.66817000   17.80347000    2.73783000     -0.178454    0.50242400   -0.36493800
Se    4.77630000   18.15228000   11.61285000      0.131882   -0.49894300   -0.22809100
Se   10.26440000    1.56258000    3.40534000     -0.268970   -0.81194600   -0.40099600
Se   10.66389000    0.56667000   16.64743000      0.317415    0.23260300   -0.49307100
Se    9.43455000    7.67480000    2.02846000      0.433183   -0.03167000    0.67484500
Se    6.67013000    8.00798000   15.29102000      0.363508    0.68953700   -0.88442000
Se   10.26588000   11.14111000    4.00727000     -0.467756    0.17240800    0.92049900
Se   10.20416000   11.38237000   11.72423000     -0.970578    0.07315500    0.34826800
Se    9.24803000   19.51366000    2.02868000     -0.112599    0.12154800   -0.50986700
Se   16.37555000   17.84524000   12.80139000      0.321866    0.24976400   -0.65368600
Se   14.39858000    3.80806000    5.79667000     -1.314353    0.34630000    0.62816600
Se   16.05470000    0.75043000   16.00908000      1.408921    0.78268400   -0.14332900
Se   16.76981000    5.45230000    4.36112000     -0.387237   -0.88488200   -0.71193300
Se   13.45297000    9.10164000   10.76813000      0.442034    0.35514300   -0.15978600
Se   15.62715000   11.05648000    2.68338000      0.036720   -0.04306500    0.12365600
Se   16.91352000   13.46747000   16.83284000      0.277873    0.62919500   -1.03924900
Se   16.04043000   16.10157000    3.23297000      0.891010    0.27912600   -0.30607900
Se   14.86045000   22.06694000   12.51173000     -0.463681   -0.25020400   -0.09173500
Se    0.07464000   20.33045000    6.07171000      0.520044    1.06271400    2.07395700
Se   20.41764000    0.96816000   13.24988000     -0.477694   -0.51805100    0.31546300
Se   21.34260000    6.50258000    4.53200000     -0.810110   -0.01458200   -0.90612200
Se   19.83227000    8.11683000   14.13796000     -0.044132   -0.15239500   -0.08649100
Se    0.62827000   14.24288000    6.07409000     -0.349348    0.02179600   -0.57930200
Se    1.64247000   14.92980000   14.68430000     -0.993494   -0.56986300    0.47468900
Se   20.91179000   17.62516000    4.42680000      0.304315   -0.24091400   -0.10869600
Se   21.49618000   21.41338000   10.74083000      0.276746    0.21800200    0.04726900
Se    2.69505000    4.20516000    3.36462000     -0.116553    0.01567100    0.46720400
Se    2.04282000    3.91832000   11.63624000     -0.123693   -1.13701400   -0.04932800
Se   21.98752000   11.17122000    1.57351000     -0.515994   -0.14992900   -0.42569000
Se    1.44952000    9.41014000   11.78367000     -0.065277    0.11427700    0.20004700
Se    0.15260000   16.87097000   18.19905000     -0.166331    0.79675400   -0.13821300
Se    4.00750000   16.25931000   12.93653000     -0.121170   -0.83282000    0.44025900
Se    2.55566000   20.19158000    2.97129000     -0.214811    0.57816400   -0.44373300
Se    5.66068000   20.04349000   15.50811000     -1.025583   -0.08598900   -0.41069300
Se    7.75448000    3.70669000    4.59711000      0.181357    0.02377400   -0.31591500
Se    9.74956000    3.45959000   14.29261000     -0.831571   -0.76530700   -0.83269100
Se    4.51424000    6.25194000    5.26658000      0.676677   -0.85376600   -0.24978800
Se    8.28577000   11.16954000   16.18881000     -1.506837   -0.21170000   -1.36567200
Se    6.66113000   14.48324000    0.87599000      0.570164   -0.27856700   -0.38294800
Se   11.42846000   14.46916000   10.47720000      0.368278   -1.10277700    0.85578800
Se    6.69593000   20.71980000    6.11217000     -0.475761    0.01340200    0.90753800
Se   10.73383000   20.97059000   14.00235000      0.222745   -0.58420400    0.52312400
Se   12.57987000    3.91752000    2.02529000      0.096846   -0.39377600   -0.14311400
Se   12.94017000    6.13546000   11.02453000     -0.413020    0.62943000    0.15619200
Se   13.55207000    7.54074000    2.69196000      0.184696   -0.00486600    0.30719500
Se   11.37437000    9.58185000   14.27902000     -0.456965   -0.74163900   -0.60929200
Se    7.94567000   14.34402000    4.89730000      0.505946   -0.52399700   -0.56707400
Se   15.46718000   14.15715000    9.90434000      0.192480    0.00101300    0.24482000
Se   14.39847000   20.22184000    3.60070000      0.503951   -0.25831400   -1.04324100
Se   14.10124000   19.88941000   13.32480000      0.769220    0.01370100    0.78719600
Se   18.62796000    6.22664000    1.53900000     -0.737994    0.37790900   -0.41946700
Se   14.94208000    5.65493000   14.35507000      0.628316    0.97617600    0.31764300
Se   19.24485000    8.73673000    3.20980000      0.928012   -0.78828900    1.73490800
Se   20.14269000   13.99241000   11.30614000     -0.511528    0.36021100   -0.64451200
Se   21.32761000   15.08308000    2.03734000     -0.235401   -0.60824900   -0.12710700
Se   17.35207000   17.01865000   10.24404000     -1.658625   -1.41157700   -0.19529400
Se   17.94775000    0.57271000    3.78904000     -0.917924    0.23046900   -0.25432200
Se   16.03088000    1.32434000   10.55683000      0.874845   -2.34390200   -0.08918600
