384
22.54784000 22.54784000 18.93360000
Ge    6.29051000    4.44119000    9.56731000     -0.554440    0.22869500    0.08218700
Ge    4.66829000    7.65939000    2.63478000      0.387994   -0.18482700   -0.09690000
Ge    3.00447000   12.61441000    7.03246000     -0.038700   -1.37978600   -0.55526100
Ge    6.65922000    9.22523000   17.20197000     -0.100674    0.51964000    0.53824000
Ge    4.01385000   13.55875000   10.06209000      0.136090   -0.82458100   -0.01146000
Ge    8.72896000   17.39936000    0.25104000      0.587944    0.41662700    0.08407900
Ge    6.31816000   18.13400000    7.96072000     -0.402374    0.15400800   -0.19286600
Ge    4.92902000    2.28345000   16.11526000     -0.349211   -0.07918100   -0.18241100
Ge    9.46956000    7.31580000    9.10565000     -0.016502    0.10697100   -0.02758400
Ge   11.29053000    5.61607000    0.72429000     -0.644015    0.99838000   -0.89475600
Ge   12.46444000    8.08639000    8.56132000     -1.821996    0.06266900    0.30655400
Ge    9.56128000   11.98725000    0.44593000     -0.076137   -0.23454100   -0.10448500
Ge   10.52472000   16.66607000    9.67329000      1.538808   -1.06019900   -1.74449300
Ge   11.65635000   15.60614000    0.72595000     -0.122645    0.41300800   -1.04749800
Ge   10.00405000   22.16970000   10.81439000     -1.059912   -0.16100600    0.69784300
Ge   13.32240000    0.71064000    1.31793000      0.103512    0.16300500   -1.44544400
Ge   18.98623000    5.66405000   10.07780000      0.527018    0.11609100   -1.34521300
Ge   17.50692000    7.65650000   17.58874000     -0.585764    0.05159600    1.01243300
Ge   17.61995000   14.43546000   11.22152000      0.471300    0.74777800   -0.20094200
Ge   17.44906000   11.06217000   17.86542000      0.234750    0.67030800   -0.42068700
Ge   13.07404000   14.91293000    8.05426000     -0.719604    0.23935500    0.83608300
Ge   17.63158000   15.83153000   18.84374000     -1.259233   -0.34750700   -1.17613000
Ge   15.66702000    3.79713000   10.80732000      0.516435   -0.62309000   -0.13100300
Ge   18.35012000    2.48536000    0.03752000     -0.669134   -0.26193000   -1.27222200
Ge    1.90088000    5.82270000    9.77158000     -2.391228   -0.59744500    0.19480000
Ge   20.41902000    3.34859000    4.84764000     -0.528886    0.52644900    0.05655600
Ge   22.46034000   10.47477000    9.74927000     -0.434053    0.07817500   -0.29135800
Ge   20.50959000    9.19287000    0.33945000      0.690314    0.09235000   -0.62593700
Ge   20.14216000   14.73443000    7.37336000      0.894439    0.19944200    1.38750100
Ge    4.70833000   15.25074000   17.08023000      0.187938   -0.09166900   -0.01854700
Ge   18.19912000    0.23833000    8.75060000      0.260870   -0.56064800    0.10416200
Ge    0.24547000   19.66398000    3.72540000     -0.739970   -0.51529200    0.72969400
Ge    3.32461000    8.15968000    7.35019000      0.561233   -0.57436900   -0.99407200
Ge    1.99829000    7.82078000   18.45853000      0.167121    0.88058800   -0.01281700
Ge   20.94282000   10.51141000    3.80423000     -0.019951    0.49165600    0.40685600
Ge    4.83943000   13.06629000   14.45920000     -1.387709   -1.58769400   -0.10782800
Ge    4.07982000   16.58818000    5.16160000      0.003847    0.32243800    0.53567200
Ge    1.14430000   19.48905000   18.90876000     -0.503992   -0.26451900    1.18800200
Ge    2.55561000   17.97282000   10.09792000      0.991361   -0.23184200   -0.54681500
Ge    1.28763000    1.64615000   17.90068000      0.584340   -0.13669500   -0.78822600
Ge    9.90306000    2.76485000    8.29434000     -0.595824   -0.04097200   -0.92343800
Ge    6.84123000    5.81996000   16.20389000      0.718251   -0.18361900    1.24318700
Ge    8.53432000    8.50279000    4.62238000      0.210415   -0.04937200    0.16209400
Ge   10.82024000    7.14031000   16.55196000     -0.393602   -0.78176700    0.34582700
Ge    7.00251000   16.00586000    9.86370000     -0.216791   -0.26512200   -0.72232200
Ge   10.26952000   15.01987000   16.68519000     -0.066618   -0.70102500    1.15300300
Ge   10.24660000   21.81738000    6.76837000     -0.468402   -0.38787300    0.34825500
Ge   10.67962000    0.90551000   13.50286000     -0.498600    1.14845100    0.08181800
Ge   12.46848000    7.75884000    5.84271000     -0.239494   -0.10183100   -0.61558300
Ge   15.04656000    3.11514000   17.09867000      0.630006   -0.28656700    0.20956700
Ge   15.51106000    9.18064000    6.16846000      0.458969    0.04333400    0.51721100
Ge   14.82893000   12.69465000   15.82118000      0.793250    0.50292300   -0.13082900
Ge   12.12525000   14.05339000    5.09875000     -0.451604   -0.01671500    0.89477600
Ge   15.38832000   19.88654000   18.60060000      0.334365   -0.25392000   -0.35551400
Ge   14.51347000   20.89289000    8.33078000      0.220972    0.15048600    0.45555700
Ge   18.05653000   22.17781000   13.66908000     -0.221291   -0.31483100   -0.53172200
Ge   22.05485000    3.66921000    8.58906000      0.001758    1.10285800   -0.22703200
Ge   19.74146000    5.64350000   13.78385000      0.935155   -1.78667500   -1.20223500
Ge   18.85914000   11.13428000    7.31980000      0.195443   -0.22595500   -0.05849300
Ge   22.30128000   14.74149000   16.32027000     -0.536579    0.89259300   -0.59339400
Ge   17.85723000   16.37946000    5.62204000     -0.226959    0.51016900    0.58043400
Ge   16.09871000   17.95753000   15.48259000      1.133835    0.44638700   -0.42226500
Ge   22.27481000    0.68142000    6.15397000     -0.504809   -0.86339300    0.20555700
Ge   19.20456000   21.95897000   17.37741000     -1.053462   -0.46694800    1.07132000
Ge    7.13327000    0.93849000    7.43644000     -1.071426    0.48118100   -0.39585900
Ge    3.51178000    2.46942000   12.86479000      0.517126    0.50387800   -0.28550400
Ge   22.42171000    9.58436000    6.07151000      0.377890    0.95135300   -0.94646900
Ge    2.90695000    7.47131000   11.23571000      0.644740    0.36633100    1.38634600
Ge    0.21209000   15.62047000    4.11746000      0.510417    0.60362600   -0.68811800
Ge    2.76435000   17.92992000   14.91840000     -1.057426   -1.12039700    0.64447100
Ge    4.41802000   21.31645000    9.64478000      0.901614    0.08513800   -0.45399900
Ge    9.15080000   19.55715000   16.27329000     -0.452290   -0.03853300   -0.43645900
Ge    5.79992000    4.28764000    2.95152000     -1.041921    0.19559100   -1.57505400
Ge    9.23519000    2.72009000   16.75025000      0.534277    0.55967200    0.98956000
Ge    6.88662000    6.08326000    4.95407000      0.426769    0.98511100    0.29694100
Ge    8.71750000    9.87024000   13.84869000     -0.343271   -0.26979500   -0.56788300
Ge    5.24206000   14.73212000    3.88121000      0.284218   -0.67790100   -0.42531500
Ge   11.43192000   11.94735000   15.33926000      0.062632    0.18075100   -0.35509500
Ge    8.25853000   21.04911000    4.02471000     -0.754110    0.69042400    0.00233200
Ge    9.45954000   16.17864000   12.84282000     -0.628249   -0.34065400    0.05728600
Ge   12.37341000    2.14892000    5.08837000      0.276715    1.12186900   -0.34319500
Ge   13.00538000    4.26830000   14.79389000     -0.141585    1.84894400    0.86714800
Ge   17.76220000    3.41025000    6.34008000      0.310353    0.79782100    0.03146900
Ge   14.78632000    9.58223000   14.57457000      0.305677    0.67725500   -0.83770500
Ge   14.74029000   13.84387000    3.16864000      0.096970   -0.27737200   -0.24090800
Ge   13.38341000   15.76187000   11.74099000      0.058094   -0.01789700   -0.56858100
Ge   10.15322000   18.10891000    4.45234000     -0.479579    0.27952900    0.44148400
Ge   12.26087000   20.31024000   16.27189000     -0.060035    0.14906700   -0.03527700
Ge    0.73872000    6.19855000    6.00586000     -0.100743   -0.18127000    0.42361100
Ge   22.08349000    3.93524000   12.54941000      0.102602   -0.22232800    0.27670400
Ge   19.92581000    8.43461000    7.75358000     -0.226892   -0.57528500   -0.05438100
Ge   17.31832000   10.65144000   11.95162000     -0.578074    0.24186500   -0.20187900
Ge   20.40857000   16.94251000    0.49081000      0.863472   -0.03494000   -0.06622700
Ge   19.37316000   15.64770000   13.75286000     -0.543442   -0.62891500    1.47931500
Ge   18.58893000   20.82579000    4.89602000      0.864938    0.58362800    0.57513800
Ge   21.43421000   20.71969000   13.23056000      0.245706   -0.32136400   -1.74796000
Ge    3.13388000    1.73511000    2.91559000      0.258738    0.77365700    0.84318400
Ge    5.34657000    1.03671000   11.53005000      0.156758   -0.08331100    0.18741500
Ge    5.25940000    9.68944000    4.24964000      0.272729   -0.10977600   -1.02249600
Ge    7.06001000    4.80401000   13.69883000      0.581613   -0.23852500   -0.88454000
Ge    5.26587000   12.09617000    0.85947000      0.788970   -0.08388200   -0.53432900
Ge    4.04170000   10.13785000   12.48740000     -0.381376    0.68372400   -0.60818700
Ge    3.37836000    0.60334000    7.95137000     -0.088530    0.08081500    0.13526300
Ge    7.36361000   19.17663000   12.76128000     -0.403170    1.81249700   -1.42649600
Ge    9.53270000    3.87866000    2.19346000     -0.636236   -0.56990500    0.18844900
Ge    9.93694000    5.09395000   11.47980000     -0.601267   -0.50524800    1.05939800
Ge   11.56340000    8.88491000    1.88892000      0.737873    0.28911600   -0.49162100
Ge   11.48523000    8.49176000   11.97107000     -1.940326   -1.52233500    0.84631200
Ge    8.71527000   13.63432000    2.51944000     -0.213301   -0.53451600   -0.12697100
Ge    7.99047000   12.84915000   10.85725000      0.290770   -0.67547300   -0.48409700
Ge   11.26473000   21.26396000    2.00759000     -0.281261    0.98456000    0.31632100
Ge   11.78997000   19.19244000   12.61758000      0.553907    2.58034000   -1.44562200
Ge   22.16520000   22.03162000   16.83218000      0.054415    0.39469500   -0.73972500
Ge   13.46214000    1.02316000    9.28214000     -0.832922   -0.05150900    0.77353300
Ge   15.98782000    6.46414000    1.96335000      0.227955   -0.03908200   -0.15320200
Ge   15.55333000    6.36574000   11.28223000     -0.106811    0.40413500   -0.50572000
Ge   17.61781000   12.31896000    1.63785000      0.306503   -0.43461900    0.32077600
Ge   15.71253000   16.05887000    7.58801000     -0.461888   -0.05396000    0.28355600
Ge   17.01656000   21.54612000    2.23487000     -0.276550   -1.29388700    0.53850000
Ge   15.68966000   20.05975000   11.17385000      0.307685    0.06379900   -0.17577100
Ge   19.95414000    1.20003000    2.88082000      2.150862    0.47826100   -0.93162700
Ge    0.46640000    0.93212000   10.82966000      0.040372    0.90819300    0.49642200
Ge   21.94522000    7.02577000    2.02885000     -0.053196    1.28986900    0.90035000
Ge   22.52067000    8.97178000   13.79800000     -0.179814    0.01641500    0.13623300
Ge   20.71168000   12.98043000   18.64757000      0.263760   -1.21591500    0.59632700
Ge   22.49269000   15.26263000    9.26027000      0.235273    0.10712000   -0.26596500
Ge    3.87297000   20.85586000    4.81627000      1.603802    0.46989600    1.22828000
Ge   19.27366000   18.27221000   11.02979000     -0.489086    0.70735800   -0.00504400
Se   21.02149000   22.39610000    0.72312000     -0.363166    0.21465000   -0.42220700
Se    0.96901000    1.26600000    8.40353000      0.827255   -0.08233400    0.46854400
Se    3.47845000   10.88813000    2.98417000     -0.621532    0.33749900   -0.02357400
Se    0.43055000    6.45057000   13.35527000      0.006472    0.25491900    0.36172200
Se    0.63077000   13.36336000   18.10698000     -0.662832   -0.55191700    0.33654300
Se    1.07917000   12.69455000    9.15074000      0.075017    0.57686600    0.22465700
Se    1.82206000   17.41384000    4.79299000     -0.726361    0.39771700   -0.27128000
Se    2.37772000   15.55979000   10.24496000     -0.782045    0.57169300    0.38166900
Se    4.44140000    1.93692000    0.87438000     -0.626878    0.10553400   -0.21319200
Se    7.15657000    3.04656000   11.66767000      0.110233    0.53221900   -0.42172400
Se    7.21127000    6.37804000    2.32531000     -1.350538    0.28867600    0.18352700
Se    9.00515000    7.47611000   11.84128000      0.570281   -0.09851200   -0.21966800
Se    7.78111000   10.15216000    0.76861000     -0.469068    0.33680400    0.63484900
Se    6.23844000   11.12011000   13.59649000      0.114214    0.39291500   -0.08125100
Se    5.10911000   20.49816000    2.07161000      0.844810   -0.05595400    0.14165100
Se    9.38691000   18.14721000   11.05464000     -0.984956    1.32074200    0.61336600
Se   11.49935000    2.25312000    0.65288000     -0.234846    0.68634300    0.41996100
Se   13.05882000    2.13963000   13.94848000      0.525618   -0.92704900   -0.71163300
Se   12.32344000    8.13190000   18.51380000     -0.899739    0.14969800    0.04691300
Se    9.08084000   10.01079000    9.57220000      0.902476    0.39291200   -1.29543100
Se   12.60250000   15.18508000    2.85741000      0.650270   -0.13432500    0.67263600
Se   12.49015000   10.67600000    7.69049000     -0.177305   -0.29291200    0.04509100
Se   13.75478000   18.21773000    2.15998000      0.578485    0.83526800    0.50553700
Se   13.51508000   17.38961000    9.59693000     -0.506506   -0.69698300    0.10044800
Se   18.76456000    3.77656000    1.98438000      0.220252    1.05869400    0.62504300
Se   16.91397000    2.17797000   12.85547000     -0.167999   -0.51210200    0.64478100
Se   14.97555000    7.91026000   18.83172000      1.088149   -0.47713200   -0.11274400
Se   17.83083000    5.35566000   12.18344000      0.186868   -0.25568400    0.90615900
Se   18.22068000    9.38864000    1.22354000     -0.571991    0.64118700    0.55714000
Se   16.59433000   14.09801000    6.06030000     -0.211107    0.31516700    0.34485900
Se   20.36568000   19.54848000    0.66381000      1.140484    0.63831100   -0.49871900
Se   17.11180000   19.86224000    8.13911000      1.236051    0.87751800    1.77573500
Se    1.07400000    0.66664000    2.75404000     -1.128115    0.44119100   -0.40508500
Se    6.75760000    7.23224000    9.12530000     -0.381383   -0.43686500    0.70197600
Se    7.40201000   10.90106000    3.24761000     -0.302817   -0.36948400   -0.36012400
Se    4.71346000   11.00028000    9.23260000     -0.649309    0.24379400   -0.53977300
Se    4.29499000   14.44409000    1.53483000     -1.441434    0.20689200    0.04709800
Se    2.91870000   12.97085000   12.29679000      0.614341   -1.01121300    0.65098800
Se    2.95316000   22.49264000   18.85421000      0.265484    0.06944200   -0.35122500
Se    6.39956000   19.53385000   10.01071000     -0.473619    0.94895900   -0.00729300
Se   12.09056000    5.92622000    4.21344000      0.481922    0.10755700   -0.33802000
Se    7.68886000    4.20463000    7.61758000      0.408256   -0.89595900    0.09711200
Se   11.72894000   11.38398000    1.91262000     -0.194874   -0.39187500   -0.23588400
Se    6.75193000   10.62165000   10.27968000      0.404917    0.02072700    0.95202300
Se    9.61041000   15.88333000    2.32207000      0.380360    0.83400700   -0.55469400
Se   12.75980000   13.26808000   13.42655000      0.447933   -0.27866300    0.27380900
Se    9.98220000   21.43735000   17.99035000     -0.314462   -0.15423800    0.26390900
Se    8.08399000   22.14288000   12.60354000      0.735760   -0.20322100   -0.62280800
Se   15.12310000    5.09916000   18.86389000     -0.084872    0.54160900    0.63440900
Se   16.65722000    6.50665000    8.68602000      0.081619   -0.70963400    0.67173500
Se   14.68640000   10.82384000    0.43179000     -0.109464    0.10933700    0.02083200
Se   15.22822000   12.22793000   13.29573000     -0.588320    0.32527500    0.08926100
Se   18.15343000   15.66267000    2.17885000      1.853755   -0.75949500    1.05346500
Se   16.30683000   11.12640000    9.54591000     -0.086429   -0.00327000    0.50361300
Se   16.67988000   22.23927000    0.04328000      0.668811    0.42625900   -0.41819400
Se   15.55724000   19.25745000    6.65824000     -1.560640   -0.18864700   -0.87019000
Se   22.48413000    3.23061000    1.92995000      0.409095   -0.59953700    0.38627500
Se   21.52071000    5.67987000   10.89898000     -0.677729    0.23629200   -0.58919800
Se   21.32366000    5.29244000    0.43198000      0.179276   -0.24895800   -0.68855100
Se   21.26140000   11.18036000   11.98869000      0.022582   -0.18810700    0.46594800
Se   19.53007000   14.89103000   17.43677000      0.606432   -0.02192500    0.07174500
Se   20.60689000   16.24093000   11.81060000      1.197850    0.42560000    0.13434400
Se   20.99812000   21.98379000    4.29806000     -0.453638   -0.72819300   -0.72950400
Se   18.22911000   21.23969000   11.02994000     -0.295853   -0.47517700    0.15892700
Se    3.75547000    5.63248000    8.50620000      1.790124   -0.44030700   -1.18923000
Se   21.50895000    2.30882000   18.87071000     -0.133396   -0.19011900    0.27628000
Se    2.06503000    9.89609000    8.31980000      0.331994    0.85020500    0.15555700
Se    0.88052000   10.17619000   18.30344000      0.828455   -0.82572500   -0.41533900
Se    3.85259000   18.28153000    7.47215000      0.464178   -0.33489300    0.43617400
Se    0.01737000   17.85900000   15.23366000      0.960719    0.46939400   -1.13117200
Se    0.22722000   18.77325000   12.56664000      0.217155   -0.85934600    0.89962200
Se    1.85992000   21.04234000   17.14963000      0.636153   -0.76562100   -0.59014500
Se    2.86558000    4.18568000    5.90026000      0.969410    0.93795000   -1.28838300
Se    5.63355000    6.67623000   18.33156000     -0.136845   -0.14585200   -0.21621400
Se    5.66491000    8.99222000    6.46010000     -0.131970    0.16516000    0.73196500
Se    3.88020000    7.28697000   16.79194000     -0.765264    0.13356700    0.67592300
Se    6.06318000   14.23802000   11.45313000     -0.292392    0.15342700    0.52435700
Se    6.42740000   17.01587000   18.56628000     -0.012726    0.54731100   -0.42014200
Se    9.19645000   19.43370000    6.93323000     -0.541505   -0.17772200    0.15605800
Se    7.04487000   19.32358000   17.64820000      0.243795    0.10024700    0.68345000
Se   10.94838000    1.75832000   11.06859000     -0.346653   -0.03015600    0.11833800
Se   11.92475000    4.61895000   17.04282000     -0.143486    0.12541900    0.35519800
Se   14.00708000    6.64305000    7.49096000      0.517692    0.16916100   -0.24016800
Se   13.38421000   10.65694000   16.46652000      0.887901    0.77280100    0.30722400
Se   10.64182000   14.71054000    7.26487000      0.992120    0.15291400   -0.41573800
Se   14.49919000   15.91781000   17.98875000     -0.758255    0.79057200   -0.79933400
Se   12.39566000    0.36180000    6.74681000      0.578761   -0.03502400    0.73941800
Se   13.49468000   21.69363000   18.24607000     -0.076313   -0.52717100   -0.14086200
Se   13.36885000    3.32746000   10.73774000     -0.516426    0.70803700   -0.05037800
Se   21.97708000    3.17427000   15.82517000     -0.092358    0.33228900    0.28005900
Se   19.03025000   11.65830000   10.28852000     -0.308832   -0.53228400   -0.05379700
Se   16.94234000    9.42100000   15.96660000      0.544932    0.91519200   -0.39548800
Se   13.73383000   16.15552000    5.68784000      0.229770   -0.17505000    0.14851900
Se   20.47991000   13.41660000   14.58638000      0.388351    0.29765700    0.38466500
Se   19.79861000   20.90682000    7.35034000     -0.495429   -0.14959400   -0.06153600
Se   18.94076000   19.62205000    2.45836000     -1.163660   -0.08188200    0.74887400
Se    4.70729000    2.15064000    9.42267000      0.213010    0.61455700   -0.67398200
Se    2.91627000    3.51911000   18.44195000      0.056154   -0.21154200   -0.07510200
Se    9.58155000    9.74418000    6.91054000     -0.330694   -0.24292100    0.36213900
Se    4.29560000    9.58300000    1.00156000     -0.132759   -0.19163100   -0.45822100
Se    6.67174000   16.56060000    5.84969000     -0.079367    1.04132100   -0.33661300
Se    5.28305000   12.16909000   17.17525000     -0.031816   -0.37347700    0.61011300
Se    1.13601000   20.14919000    9.99406000     -1.167958   -0.00166800    0.17674300
Se    2.09292000   17.59438000    1.49374000     -0.689911    0.11650300   -0.26399300
Se    8.60576000   22.20354000    8.84396000      0.233325   -0.70131400    0.10844500
Se    7.15031000    3.07115000    0.96662000      0.965190   -0.00173800   -0.32864200
Se   10.89297000    4.68787000    9.28788000      0.295051    1.36893300   -0.46720900
Se    8.77431000    6.08143000   18.01961000      0.408110    0.03350800   -0.84335900
Se    8.75920000   12.46764000    5.87862000     -0.088292   -0.91551200    0.50880200
Se    8.07249000   13.88345000   17.59885000      0.128194    0.29940300    0.15824800
Se   11.82772000   20.73439000   10.19570000      0.102620   -0.34374200    0.19535600
Se   11.52523000   13.38040000   18.62972000      0.621458    0.23879800   -0.69435800
Se   15.35869000    0.96775000    7.81054000      0.964011   -0.56678100   -0.34392600
Se   15.59440000    2.50239000    0.70091000     -0.406722   -0.11350400   -0.81153200
Se   16.29955000    3.91658000    8.42085000      0.097491    0.17003700   -0.48900500
Se   14.03385000    7.68608000   15.78700000     -0.938972   -1.72988800    0.37823100
Se   17.33635000    8.92161000    8.40789000     -0.998153    0.42352300    0.28180100
Se   15.19940000   14.25247000    0.49556000      0.635632   -1.29595400    0.57800400
Se   12.49250000   18.47839000    5.59878000      0.301166   -0.64204000    0.17075100
Se   17.62728000   18.15530000   18.21437000     -0.279650    0.10511000   -0.07256600
Se   20.75161000    2.15209000    9.95637000     -0.133376   -0.33596300   -0.05507800
Se    0.56809000   21.82236000   14.29428000      0.457026    0.79079100    0.93992600
Se   19.48012000    8.08148000   10.20322000      0.486620    0.80342800    0.00598800
Se    0.06970000    6.54131000   17.58931000     -0.456012   -0.65591800   -0.30845300
Se   21.22730000   11.78498000    6.98663000     -0.275065   -0.19827900    0.04987000
Se   19.86564000   10.91644000   17.07499000      0.404510    0.10128000    0.88959700
Se   19.02744000   17.00854000    7.84841000     -0.406100   -0.29147800   -0.43370100
Se   18.82817000   16.75593000   15.96554000      0.215795    0.78055800   -1.13369800
Se    2.71030000   21.88148000   11.17628000     -0.036869   -0.22398200    0.73823200
Se    2.24301000    1.91822000   14.74493000     -0.045957    0.26416500    0.50757800
Se   22.31553000    7.81937000    7.83672000      0.444654   -0.75567600    1.06748800
Se    1.54359000    9.84927000   15.99667000      0.064242    0.06758800   -0.94142400
Se    3.14236000   15.05020000    7.03973000      0.549363    0.85383800    0.39089800
Se    2.74526000   13.58802000   16.32516000      1.461132   -0.75266700   -0.10620100
Se    0.55536000   17.16459000    7.33126000     -0.507024   -0.07894300    0.73498200
Se    3.70394000   19.90236000   14.01848000     -1.682511    0.56434800   -1.29178400
Se    6.59108000    0.44356000    2.69503000      0.167127   -0.17115100    0.10295000
Se    7.15442000   21.74388000    0.80797000     -0.268685   -0.60328900   -0.20076600
Se   10.17194000    6.89844000    6.36041000     -0.795770    0.17146500   -0.11274200
Se    4.70698000    4.40094000   14.15182000     -0.911645   -0.27169300    0.44384900
Se    4.64134000   12.54679000    4.78743000      0.092447    0.06643300    0.62359100
Se    9.34992000   13.98160000   14.82585000     -0.035083    0.10828300   -0.95244500
Se    6.82549000   18.04725000    3.69471000      1.107334   -0.27740900    0.75934700
Se    7.85239000   17.64467000   14.31305000      0.882120   -1.59091600    1.69482000
Se   14.01657000    0.54387000    3.46815000      0.652398   -0.05629900    1.84657800
Se   13.68432000    0.39542000   15.96985000     -0.169416    0.25013600    0.42186600
Se   13.71307000   10.03000000    4.52558000     -0.730276   -0.53605800   -0.09461100
Se   10.90982000    5.60471000   14.14632000      0.297065   -0.16685500   -0.52769000
Se   13.92915000   12.18569000    5.69212000      0.197538    0.81431000   -0.29658400
Se   13.66217000   14.86678000   15.70676000     -0.436779   -0.30958700    0.14419900
Se   11.60188000   19.28949000    7.81621000      0.403646   -0.31359300    0.05883500
Se   11.83513000   19.11916000    1.07351000      0.688014   -1.06450900   -0.57713400
Se   19.12775000    1.42769000    6.56269000      0.656231    0.19806000   -0.00905600
Se   19.21255000    1.30179000   16.01529000      0.166463    0.69970800   -0.32860300
Se   20.07678000    5.11618000    7.35507000     -0.508346   -0.42194700   -0.20801100
Se   18.89003000    6.35304000   15.88236000     -0.034037   -0.17587200    0.74624400
Se   19.10797000   12.48416000    4.10431000     -0.470181   -0.72901700   -0.91489800
Se   17.12745000   14.57654000   13.52285000      0.292943    0.00881600    0.03570000
Se   16.61927000   18.31795000    4.46730000      0.269091    0.02143100   -0.07048300
Se   16.86633000   20.59791000   15.96426000     -0.138977   -0.32537300    0.38323900
Se    1.97727000    8.17264000    5.12114000      0.390145   -0.15456000    0.15429100
Se    2.79011000    6.48610000   13.79541000      0.009473    0.77626100   -0.77886300
Se    1.21958000   11.68478000    4.91418000      0.159816    0.63199500    0.53789700
Se    4.07861000   10.12961000   14.91160000     -0.527262    0.10663400    0.83782000
Se    5.51576000   14.51218000    7.89861000      0.136941    0.47401300    0.03537300
Se    3.46040000   17.52090000   17.23195000      0.292714   -0.10410200   -0.57720100
Se    2.41978000   20.80735000    6.91476000      0.706893   -0.66259700    0.55627200
Se    5.60087000   22.49068000   14.76855000     -0.016995    0.40612800    0.16695800
Se    8.96157000    1.00513000    5.62776000     -0.062317    0.12985600   -0.96683300
Se    7.12090000    1.64226000   17.60493000     -0.207471    0.23922900    0.60111500
Se   13.38237000   11.77020000    9.56130000      0.055772   -0.20605800   -0.05945900
Se   10.19581000   10.18339000   17.38091000     -0.279924    0.03854900    0.36103500
Se    8.07363000   13.85605000    8.60746000      0.180568    0.52694200    0.20130500
Se   11.68247000   17.10600000   13.47882000      0.751595   -2.13254000    1.52832000
Se   10.94407000   20.57359000    4.50909000      0.209857    0.56670600   -0.71467300
Se   10.40077000   17.45375000   17.03152000      0.156824    0.21009400    0.40886000
Se   10.71214000    3.91421000    5.75411000     -0.242186    0.24662700    0.48309300
Se   17.52747000    4.36606000   17.21661000     -0.092711   -0.53936800    0.44093100
Se   17.07863000    7.33721000    5.64061000      0.428278   -0.72852100   -0.86982900
Se   16.66715000    8.28666000   12.29280000     -0.170371    0.48215600    0.65460200
Se   17.35407000   10.96474000    5.16538000      0.317446   -0.10902400    0.46614500
Se   14.09006000   18.54879000   16.66039000     -0.868001   -0.33493700    0.34507000
Se   15.83597000    2.41736000    4.50996000     -0.060947    0.55636500    0.56416100
Se   19.13753000    2.84168000   12.33154000     -0.275337   -0.13494000    0.15802900
Se    0.12503000    3.01978000    5.63709000      0.150523    0.53908200   -0.05417700
Se    1.34165000    4.48284000   16.12564000     -0.076943   -0.23009100    0.24988500
Se   18.08757000   13.45793000    8.02269000     -0.116927   -0.13406100   -0.53466300
Se   22.47234000   12.89906000   13.32371000      0.050357    0.00300700   -0.10643500
Se   19.87220000   15.17195000    5.04714000      0.256416    0.01140200   -1.24992900
Se   19.51193000   19.55362000   13.88831000     -0.863031   -0.24514300   -0.37520200
Se   21.82533000   18.28571000    9.18807000      0.310011   -0.13967500    0.01941400
Se   20.46797000   20.18114000   16.32014000      0.422354   -0.54262300    0.20749200
Se    3.23239000    0.78001000    5.36628000      0.481467    0.18610100   -0.52850900
Se    6.94973000    2.05260000   14.25709000      0.603320    0.17303600    0.50455800
Se    1.93446000    7.34706000    1.88906000     -0.147625   -0.41661100    0.38798100
Se    5.46957000    7.06988000   11.35263000      0.193588    0.43314700   -0.41033800
Se    1.51400000   14.57351000    1.99222000      0.168625    0.54145600    0.35648700
Se    5.91753000   15.17738000   14.44548000      0.127971    1.29149800    0.78611500
Se    4.62265000   17.82236000    2.85669000     -0.157186    0.43649800   -0.31676200
Se    4.80029000   17.96246000   11.49551000      0.645712   -0.37780200   -0.17659400
Se   10.33859000    1.51443000    3.33042000     -0.381938   -0.02659900   -0.45253000
Se   10.70348000    0.59964000   16.55674000     -0.120984    0.34512400   -0.11070100
Se    9.46197000    7.82016000    2.18249000      0.157477   -0.20784500    0.36385600
Se    6.73928000    7.97200000   15.11676000      0.337696   -0.04354500   -1.01625100
Se    9.96428000   11.23791000    4.11692000      0.617115    0.36084800   -0.24971800
Se    9.99341000   11.38573000   11.74266000     -0.462596    0.04473700    0.30187000
Se    9.28896000   19.49114000    1.85909000     -0.596999    0.18880000   -0.04046700
Se   16.42647000   17.81795000   12.73765000      0.351156    0.07065600   -0.84479600
Se   14.42176000    3.84153000    5.77246000     -0.733760   -0.44952300   -0.38094300
Se   16.01782000    0.55341000   15.88464000      0.263473    0.50785300    0.24872300
Se   16.79846000    5.33216000    4.24913000     -0.180912    0.59732500    0.69877900
Se   13.13733000    9.19762000   10.61475000      2.424760    1.27262600    0.13339500
Se   15.38678000   11.10896000    2.67849000      1.003963    0.47029400   -0.84854300
Se   17.08619000   13.57135000   16.57407000     -0.731979   -1.38822200    0.29484800
Se   16.09489000   16.08165000    3.03283000     -1.045013    0.56902900    0.33009800
Se   14.80910000   22.18741000   12.48562000     -0.260141   -0.35761300   -0.34078100
Se    0.26993000   20.43240000    6.32825000     -0.919057   -0.15498700   -0.42174600
Se   20.31547000    0.80469000   13.31722000      0.164547    0.28919800    0.02596200
Se   21.33721000    6.63862000    4.61769000     -0.697200   -0.29081100   -1.17448400
Se   19.93399000    7.93019000   14.13363000      0.011569    1.96418300    0.25461000
Se    0.66325000   14.26462000    6.06241000     -0.741782   -0.62767100   -0.35432300
Se    1.81897000   14.79737000   14.62499000     -1.549777    0.32236600   -0.13444300
Se   21.11295000   17.64032000    4.33089000      0.165502    0.48319900   -0.11245800
Se   21.61306000   21.51961000   10.50162000     -0.658961   -0.77108100    0.31616500
Se    2.85238000    4.17856000    3.22936000     -0.226146   -0.54063000    0.91170900
Se    1.94275000    4.07269000   11.57733000      0.220499   -0.94374600   -0.38041500
Se   21.75048000   11.09233000    1.49423000     -0.283006    0.25348600    0.03591100
Se    1.40691000    9.51865000   11.63229000      0.422912   -0.26526500    0.55386300
Se    0.37756000   17.24575000   18.23202000     -0.631481   -0.63531800   -0.30610200
Se    3.93709000   16.16699000   13.14927000      0.077055    0.39779900    0.02973500
Se    2.56213000   20.39268000    2.97608000     -1.413839    0.34388700   -1.34168300
Se    5.49141000   20.18576000   15.36310000      1.141980   -0.55622900    0.75756000
Se    7.36421000    3.76256000    4.57890000      1.329203   -1.56134900    0.66157700
Se    9.71962000    3.48641000   14.39298000     -0.445615    0.03722500   -0.84378800
Se    4.40128000    6.25138000    5.31906000      0.128038   -0.70510600    0.03549800
Se    8.38829000   11.09234000   16.09561000     -0.371632   -0.39133400   -0.12226500
Se    6.95912000   14.61959000    0.76371000      0.146399   -1.06563100   -0.04812300
Se   11.56247000   14.42199000   10.47419000      0.038993    0.47123500    0.41828100
Se    6.80693000   20.76077000    6.10211000     -0.177228   -0.16592600    0.27433000
Se   10.82073000   21.03008000   13.98783000      0.085733   -1.26173400    0.53146600
Se   12.63624000    4.09999000    1.99050000      0.612983   -1.19924200    0.51511700
Se   13.05022000    6.17609000   11.05226000     -0.404417    0.21777300    0.15708500
Se   13.50087000    7.36606000    2.57136000     -0.348152    0.00038800    0.93281200
Se   11.25180000    9.58751000   14.07548000      0.591820    0.09911300    0.92150600
Se    8.08903000   14.47986000    4.85741000     -0.090698   -0.36662200   -0.69954400
Se   15.70489000   13.90691000    9.97635000     -0.986445   -0.40464700   -0.12202100
Se   14.41519000   20.24945000    3.79062000      0.264937   -0.64280100   -1.49921200
Se   14.27800000   20.01839000   13.39039000     -0.819085   -0.55036600    0.46103600
Se   18.45433000    6.16612000    1.48089000      0.112502    0.01685000   -0.05224600
Se   14.96677000    5.90553000   14.53018000     -0.085385   -0.65375800   -0.04543800
Se   19.39046000    8.65086000    3.48751000     -0.061216   -0.30854200   -0.44940400
Se   20.08358000   13.90539000   11.32760000     -0.752831   -0.02906500   -1.10118600
Se   21.35572000   15.00094000    2.08875000      0.100449   -0.46592400   -0.72162000
Se   17.21046000   16.81098000   10.23372000      0.475305    0.34549500    0.96043000
Se   17.88561000    0.74100000    3.71404000     -1.801815   -0.87598900    0.55994600
Se   16.08164000    1.29331000   10.61616000      0.517058    0.04550600   -0.16055600
