384
22.54784000 22.54784000 18.93360000
Ge    6.24739000    4.43000000    9.52286000     -0.510827    0.10331200    0.44296400
Ge    4.69450000    7.65890000    2.67604000      0.426996   -0.28730500    0.03407900
Ge    2.95577000   12.56530000    7.01602000      0.000454   -0.83659600   -0.48057300
Ge    6.67844000    9.15751000   17.17017000      0.022931    0.48043400    0.34108900
Ge    4.01722000   13.58085000   10.05280000     -0.026583   -0.88833600    0.07423100
Ge    8.73384000   17.36253000    0.29109000      0.503053    0.27306200    0.07374700
Ge    6.28119000   18.13350000    7.94767000      0.168017    0.09560000   -0.14918000
Ge    4.89297000    2.35129000   16.12902000     -0.181310   -0.22625400   -0.33474100
Ge    9.49790000    7.31015000    9.07785000     -0.026095   -0.01358600   -0.02509200
Ge   11.31208000    5.60866000    0.70990000     -0.601123    1.07098400   -0.81655600
Ge   12.42886000    8.10206000    8.55147000     -1.402634   -0.01759500    0.55789200
Ge    9.55966000   12.03505000    0.42285000     -0.250728   -0.62318900   -0.04776300
Ge   10.54827000   16.72173000    9.67484000      1.990390   -1.55061900   -2.10234700
Ge   11.67935000   15.62601000    0.63177000      0.254321    0.75914100    0.07599400
Ge    9.96389000   22.07095000   10.83941000     -0.617939    0.73873100    0.98385800
Ge   13.27455000    0.72081000    1.27457000      0.653565   -0.08987500   -0.86281900
Ge   18.92224000    5.62145000   10.03864000      0.743691    0.50595100   -0.90556700
Ge   17.47915000    7.63416000   17.64394000     -0.527583   -0.15471300    1.04914200
Ge   17.62233000   14.43216000   11.22483000      0.622803    0.76718000   -0.33098800
Ge   17.42993000   11.00804000   17.90558000      0.260916    0.80858000   -0.21718300
Ge   12.98017000   14.89515000    8.08650000     -0.297649    0.23019000    0.99979800
Ge   17.59139000   15.84369000   18.80346000     -0.807317   -0.49957100   -0.93819800
Ge   15.65414000    3.86482000   10.81025000      0.579186   -1.49902400    0.03666800
Ge   18.35129000    2.49565000   18.90699000     -0.655629   -0.04573400   -0.80962600
Ge    1.84251000    5.87830000    9.77059000     -1.917516   -0.94599400   -0.45866600
Ge   20.41306000    3.34942000    4.85506000     -0.770974    0.66508900   -0.04640200
Ge   22.48979000   10.44710000    9.66043000     -0.755568    0.14565500    0.02282800
Ge   20.51364000    9.17960000    0.35068000      0.271931   -0.05780300   -0.62892500
Ge   20.12200000   14.71935000    7.31815000      0.863045    0.26297200    1.81155100
Ge    4.69782000   15.19343000   17.07494000      0.481554   -0.04707500   -0.06230600
Ge   18.17716000    0.21532000    8.64664000      0.074666   -0.62617100    0.27800200
Ge    0.22125000   19.64738000    3.70307000     -0.505105   -0.40799100    0.70231300
Ge    3.33646000    8.10834000    7.38222000      0.259400   -0.26859500   -0.93292700
Ge    1.96725000    7.81049000   18.48351000      0.235878    0.49459800    0.02590300
Ge   20.91800000   10.55539000    3.85361000      0.021210    0.27715600   -0.04546600
Ge    4.86475000   12.99850000   14.44152000     -1.536029   -1.07579300   -0.00128900
Ge    4.10562000   16.53279000    5.14769000     -0.271409    0.26020100    0.54620800
Ge    1.16477000   19.45932000    0.03587000     -0.386932    1.24672900    0.77880900
Ge    2.57189000   17.96385000   10.13690000      0.748291   -0.09819900   -0.53895600
Ge    1.29087000    1.66161000   17.93768000      0.228280   -0.36712300   -0.80676900
Ge    9.93022000    2.74322000    8.24659000     -0.443641    0.45775600   -0.71713200
Ge    6.79596000    5.79322000   16.26671000      0.804469    0.13603800    0.57385500
Ge    8.53355000    8.46109000    4.66915000      0.247056   -0.11780900    0.23079300
Ge   10.84153000    7.07222000   16.54732000     -0.418079   -0.54535100    0.31027900
Ge    6.94611000   15.97133000    9.89198000     -0.088965    0.24147700   -1.01180800
Ge   10.33632000   15.08122000   16.76069000     -0.330500   -1.50593200    0.26154700
Ge   10.22513000   21.81809000    6.77392000     -0.218862   -0.31557800    0.13791300
Ge   10.69109000    0.94087000   13.51606000     -0.460532    0.93120100    0.16531400
Ge   12.45196000    7.73241000    5.91499000      0.051491    0.12307300   -0.84217900
Ge   15.06523000    3.13198000   17.12547000      0.476252   -0.24709800    0.19739000
Ge   15.50302000    9.22105000    6.17124000      0.669639   -0.40568600    0.41499800
Ge   14.83455000   12.67734000   15.81245000      0.859222    0.70248800   -0.01114400
Ge   12.14571000   14.02020000    5.09448000     -0.578052    0.04386900    0.87255000
Ge   15.44451000   19.94865000   18.55444000      0.069264   -0.34855600   -0.39232400
Ge   14.50585000   20.87915000    8.38037000      0.335351    0.00414900    0.15170300
Ge   18.07867000   22.19799000   13.69377000     -0.501907   -0.35756400   -0.64227700
Ge   22.06323000    3.65137000    8.58637000     -0.098320    1.19354000   -0.13543900
Ge   19.82272000    5.60871000   13.79911000      0.584212   -1.34732200   -0.88725800
Ge   18.84521000   11.16280000    7.28774000      0.252996   -0.56729800   -0.12011300
Ge   22.37087000   14.74362000   16.30819000     -0.813548    0.81954100   -0.66201000
Ge   17.87251000   16.35502000    5.62606000     -0.094488    0.58879900    0.66377900
Ge   16.10599000   17.96405000   15.46604000      1.052359    0.36291600   -0.37663000
Ge   22.26526000    0.67943000    6.13709000     -0.373686   -1.41540000    0.45664800
Ge   19.16805000   21.99606000   17.38111000     -0.802476   -0.89597300    1.07581200
Ge    7.21220000    0.90051000    7.48998000     -1.785402    1.00518800   -0.93785300
Ge    3.48422000    2.47492000   12.82285000      0.538441    0.53667000   -0.43680500
Ge   22.38090000    9.66187000    6.04864000      0.500442    0.60654600   -0.99033300
Ge    2.88465000    7.50141000   11.17687000      0.970209    0.59298400    1.72929700
Ge    0.16339000   15.63720000    4.13405000      0.463218    0.41838700   -0.75317800
Ge    2.77213000   17.94461000   14.96084000     -0.958512   -0.68442100   -0.13976600
Ge    4.43183000   21.32079000    9.60590000      0.814444    0.02218800   -0.25592900
Ge    9.18048000   19.53269000   16.31461000     -0.622730    0.39666800   -0.54005200
Ge    5.71840000    4.30950000    2.91107000     -0.289239    0.21006200   -1.03274700
Ge    9.23300000    2.74705000   16.81858000      0.715600    0.65942000    0.56709800
Ge    6.85734000    6.11815000    4.96553000      0.808206    0.32339200    0.28673600
Ge    8.74687000    9.86912000   13.89010000     -0.709857   -0.38311200   -0.82482800
Ge    5.26563000   14.74814000    3.82665000      0.218034   -1.06621900   -0.42075500
Ge   11.41612000   11.96254000   15.35012000     -0.135260    0.04762000   -0.09162700
Ge    8.25627000   21.13226000    3.99313000     -0.862997    0.61442200    0.10652100
Ge    9.47493000   16.16168000   12.81737000     -0.859056   -0.50026100    0.26027000
Ge   12.35394000    2.17491000    5.12238000      0.444655    0.90224500   -0.36269600
Ge   12.97812000    4.27705000   14.81785000      0.249575    1.63984600    0.76741900
Ge   17.75432000    3.39588000    6.41805000      0.179301    1.05356300   -0.25401900
Ge   14.82197000    9.64327000   14.61175000      0.211259    0.51979400   -1.04233600
Ge   14.68264000   13.83013000    3.17263000      0.568144   -0.14430400   -0.12915600
Ge   13.39259000   15.76923000   11.77417000     -0.016728    0.03209200   -0.66839600
Ge   10.16664000   18.12326000    4.46063000     -0.596915    0.14524900    0.37190200
Ge   12.26489000   20.26684000   16.19190000      0.027164    0.22639200    0.02655700
Ge    0.75179000    6.17319000    6.04749000     -0.161529    0.03609000   -0.17628500
Ge   22.09584000    3.92258000   12.51044000     -0.096635   -0.01370900    0.12590800
Ge   20.00033000    8.44388000    7.75838000     -0.647833   -0.42687000    0.01245300
Ge   17.37442000   10.69495000   11.92478000     -0.828964   -0.04194800    0.15123500
Ge   20.46843000   16.96701000    0.49176000      0.604400   -0.20326700   -0.17303700
Ge   19.37645000   15.61984000   13.78284000     -0.472219   -0.26933100    1.25775700
Ge   18.61548000   20.80616000    4.92088000      0.787210    0.58939600    0.48398900
Ge   21.43468000   20.71762000   13.19944000      0.641130   -0.45410700   -1.64559400
Ge    3.17139000    1.72961000    2.90854000     -0.140950    0.17894000    0.91219200
Ge    5.34644000    1.04579000   11.62028000      0.153890    0.08680900   -0.44209200
Ge    5.29779000    9.70255000    4.21971000      0.477884   -0.57637800   -0.36130700
Ge    7.02568000    4.82130000   13.67110000      1.208229    0.00021000   -0.94393000
Ge    5.30301000   12.06034000    0.82760000      0.758512    0.00567500   -0.43595700
Ge    4.06089000   10.13583000   12.45409000     -0.370355    0.69775800   -0.55430300
Ge    3.34174000    0.56462000    7.96883000     -0.039568    0.44041300    0.10896000
Ge    7.38228000   19.16891000   12.81515000     -0.426779    1.43517200   -1.20874800
Ge    9.53792000    3.88040000    2.15612000     -0.752515   -0.59880900    0.21146800
Ge    9.93347000    5.08143000   11.53072000     -0.480491   -0.65534700    0.68399400
Ge   11.57839000    8.91440000    1.87335000      0.663513    0.29645400   -0.45408000
Ge   11.44942000    8.46826000   12.02094000     -0.740717   -1.52828600   -0.50342900
Ge    8.75712000   13.58481000    2.55444000     -0.169507   -0.17597400   -0.29655400
Ge    7.98736000   12.91345000   10.86587000      0.558364   -1.16020800   -0.68959500
Ge   11.28968000   21.24569000    1.98613000     -0.390915    1.28269200    0.29883700
Ge   11.75982000   19.18812000   12.59488000      0.747587    2.25354600   -1.31064800
Ge   22.14928000   22.00906000   16.86726000     -0.005409    0.42189200   -0.85193900
Ge   13.46564000    1.01189000    9.28122000     -0.481092   -0.15326600    0.62741700
Ge   16.03078000    6.47575000    1.97247000     -0.144620   -0.03505500   -0.05452000
Ge   15.59781000    6.30472000   11.22150000     -0.258518    1.49004100   -0.15579400
Ge   17.63099000   12.33609000    1.64136000      0.263713   -0.45706300    0.26177400
Ge   15.69367000   16.02585000    7.50845000     -0.566341    0.23871400    0.51872300
Ge   17.00013000   21.56221000    2.23048000     -0.314380   -1.31952900    0.54614700
Ge   15.76259000   20.05703000   11.19273000      0.208210    0.08033200   -0.16838400
Ge   19.96277000    1.19754000    2.87658000      1.390377    0.34082000   -0.51749300
Ge    0.44643000    0.89708000   10.84961000      0.325588    1.35670700    0.43726100
Ge   21.93133000    7.11230000    2.06336000     -0.226039    0.53675700    0.42742100
Ge    0.00464000    8.93459000   13.76073000     -0.230550    0.11722800    0.36352200
Ge   20.74339000   12.92845000   18.64508000     -0.074129   -0.74454900    0.35068800
Ge   22.45465000   15.23541000    9.26484000      0.314079    0.15135600   -0.25897300
Ge    3.81394000   20.88759000    4.79402000      1.707101    0.41830500    1.44673200
Ge   19.32088000   18.30290000   11.04684000     -0.567031    0.45961000   -0.10861000
Se   20.96643000   22.39749000    0.76861000     -0.352252    0.30858200   -0.50237000
Se    0.93841000    1.28090000    8.42310000      0.808564   -0.11909500    0.42187700
Se    3.59169000   10.91191000    3.01377000     -1.034384    0.68720400    0.07281500
Se    0.44408000    6.45001000   13.44731000     -0.194641    0.14647300    0.36627600
Se    0.62569000   13.33922000   18.08785000     -0.530165   -0.62113800    0.41668000
Se    1.09717000   12.65855000    9.15642000      0.044473    0.75777300    0.23539900
Se    1.85019000   17.33130000    4.77152000     -0.714046    0.96938500   -0.17090700
Se    2.37633000   15.55405000   10.25870000     -0.870502    0.48777000    0.32884900
Se    4.42866000    1.92654000    0.84091000     -0.545508    0.12723900   -0.13833000
Se    7.18531000    3.02962000   11.66627000     -0.006706    0.65684600   -0.55038100
Se    7.19809000    6.44042000    2.39591000     -1.296891    0.13180900   -0.05622300
Se    9.03172000    7.46994000   11.79491000      0.566877   -0.06021700   -0.16661500
Se    7.73343000   10.18607000    0.76990000     -0.313397    0.40073800    0.59129400
Se    6.28569000   11.15164000   13.56544000      0.012691    0.14741100   -0.13439500
Se    5.11483000   20.47415000    2.08535000      0.804801   -0.08737200    0.11008600
Se    9.36987000   18.12272000   10.99728000     -1.367685    1.73628700    1.14980900
Se   11.51774000    2.29536000    0.69668000     -0.491863    0.83108800    0.24816300
Se   13.11052000    2.09773000   13.98254000      0.501609   -0.63424300   -0.83444200
Se   12.30388000    8.17387000   18.49198000     -0.796995    0.28318800    0.13296500
Se    9.09460000   10.01239000    9.56878000      0.692535    0.49729600   -1.15914700
Se   12.61399000   15.17652000    2.87538000      0.098058    0.15979000   -0.09609100
Se   12.47732000   10.67019000    7.67860000     -0.470927   -0.46804800   -0.42852800
Se   13.75751000   18.31533000    2.16213000      0.519218    0.69149400    0.48244600
Se   13.54499000   17.38225000    9.55323000     -0.565762   -0.79919300    0.34633700
Se   18.81243000    3.75246000    2.00052000      0.052289    0.89927600    0.18422800
Se   16.89118000    2.16564000   12.89109000      0.146914   -0.47452800    0.22337300
Se   14.97810000    7.84840000   18.80282000      0.892557   -0.59388600   -0.07812500
Se   17.81915000    5.40642000   12.22892000      0.620481   -0.42354000    0.92945800
Se   18.17680000    9.42934000    1.22422000     -0.252860    0.54606600    0.47667800
Se   16.53691000   14.10798000    6.04201000     -0.038559   -0.04128400    0.11719300
Se   20.39932000   19.56539000    0.63141000      0.690457    0.52962800    0.15367700
Se   17.11397000   19.90522000    8.19137000      0.377084    0.60254000    1.08904300
Se    1.04234000    0.65986000    2.77541000     -0.675068    0.79442700   -0.39965000
Se    6.75576000    7.20369000    9.14987000     -0.370761   -0.32530500    0.54686700
Se    7.44291000   10.94603000    3.24536000     -0.331597   -0.31745400   -0.50822900
Se    4.65664000   11.06356000    9.23575000     -0.049114   -0.07945700   -0.26698300
Se    4.30112000   14.40010000    1.50838000     -1.342415    0.30477900    0.09558100
Se    2.89565000   12.91616000   12.31320000      0.810957   -0.90979100    0.57519500
Se    2.90772000   22.47442000   18.89579000      0.100165   -0.02596700   -0.50057500
Se    6.41889000   19.53457000    9.96751000     -0.454186    0.81243500    0.22403900
Se   12.13159000    5.94909000    4.30538000      0.409262    0.05000900   -0.84673500
Se    7.67772000    4.20132000    7.63437000      0.619555   -0.89160400   -0.12664000
Se   11.74727000   11.46714000    1.89481000     -0.260153   -0.57608600   -0.19170000
Se    6.78316000   10.62283000   10.31388000      0.069330    0.31970000    0.43641400
Se    9.64615000   15.89407000    2.32023000      0.433462    0.59378300   -0.55664900
Se   12.76195000   13.24439000   13.53502000      0.472139    0.01783300   -0.08990800
Se    9.99934000   21.43848000   17.99611000     -0.216358    0.08412200    0.06505400
Se    8.06230000   22.11834000   12.58802000      0.688379   -0.20834400   -0.47623700
Se   15.11499000    5.11726000   18.90171000     -0.212657    0.54498300    0.53424600
Se   16.62762000    6.53133000    8.72725000      0.174917   -0.64371800    0.43759900
Se   14.67062000   10.77962000    0.41489000     -0.082132    0.15735600    0.09835500
Se   15.18411000   12.22380000   13.28481000     -0.564446    0.28091200    0.08737300
Se   18.12697000   15.67535000    2.18807000      2.321070   -0.81971400    0.39190300
Se   16.29483000   11.15601000    9.55629000     -0.164791    0.01460600    0.41829400
Se   16.66080000   22.23404000    0.02333000      0.778041    0.58009100   -0.37086700
Se   15.56072000   19.19451000    6.64031000     -0.873945    0.13610000    0.07657200
Se   22.47677000    3.23037000    1.95434000      0.443689   -0.59987400    0.45788600
Se   21.49962000    5.74449000   10.87088000     -0.553318    0.01703200   -0.39706400
Se   21.29478000    5.21719000    0.42715000      0.366095    0.45194000   -0.29722800
Se   21.26723000   11.25168000   12.00402000     -0.250693   -1.02566200    0.02481100
Se   19.53710000   14.90340000   17.36928000      0.564352    0.12745900    0.30860900
Se   20.62246000   16.23188000   11.84373000      0.930521    0.24651500    0.14490400
Se   21.01951000   21.99235000    4.29822000     -0.581600   -0.78559500   -0.69521200
Se   18.23839000   21.26909000   11.00544000     -0.285488   -0.51157900    0.29941500
Se    3.76833000    5.65397000    8.48874000      1.106051   -0.47860700   -0.72465700
Se   21.45817000    2.30192000   18.92972000      0.023349   -0.25691200    0.00670700
Se    2.06638000    9.92011000    8.37829000      0.846327    0.45693300   -0.30009400
Se    0.89544000   10.09668000   18.29994000      0.680424   -0.52639400   -0.30866200
Se    3.92295000   18.29299000    7.51350000     -0.198519   -0.33812100    0.29289600
Se    0.09377000   17.82653000   15.29465000      0.793194    0.51848200   -1.08197500
Se    0.26708000   18.71647000   12.54532000      0.035835   -0.44269300    0.83331300
Se    1.87020000   21.09407000   17.10585000      0.494473   -1.03506100   -0.18428300
Se    2.88144000    4.19736000    5.83980000      0.878008    0.65096100   -1.09808300
Se    5.65207000    6.69431000   18.32852000     -0.259972   -0.05192200   -0.06430800
Se    5.63551000    8.92199000    6.46441000     -0.146896    0.26422800    0.57047300
Se    3.85721000    7.29726000   16.81937000     -0.641178    0.21820800    0.64565000
Se    6.05806000   14.23211000   11.42312000     -0.665875   -0.02894100    0.93929200
Se    6.44476000   17.06705000   18.55810000     -0.054103    0.54244800   -0.38588700
Se    9.17627000   19.45510000    6.97399000     -0.462778   -0.06250100    0.08799500
Se    7.01747000   19.34397000   17.64043000      0.256397    0.18249200    0.65357400
Se   10.96346000    1.76770000   11.14232000     -0.582879   -0.72969300   -0.21090200
Se   11.90108000    4.61990000   17.06291000     -0.007096    0.09323000    0.40619300
Se   14.04049000    6.63978000    7.49312000      0.164599    0.29524700   -0.04249400
Se   13.40803000   10.66394000   16.48551000      0.586227    0.93012800    0.26351000
Se   10.62080000   14.73714000    7.25086000      0.792132    0.23286100   -0.33484500
Se   14.52051000   15.93590000   18.05048000     -0.795795    0.85080700   -0.94834100
Se   12.41109000    0.34337000    6.75317000      0.463150   -0.07705400    0.68273800
Se   13.44877000   21.71965000   18.27045000      0.034391   -0.65932100   -0.26007800
Se   13.38446000    3.32144000   10.70568000     -0.604919    0.60644800   -0.05664800
Se   21.98841000    3.23625000   15.85239000      0.054107    0.32434800    0.17602300
Se   19.03230000   11.59101000   10.26575000     -0.031462   -0.23060800   -0.13944900
Se   16.88530000    9.38718000   16.04804000      0.831639    0.94806700   -0.47752900
Se   13.72538000   16.10350000    5.68920000      0.208533   -0.01548600    0.00458800
Se   20.46692000   13.45579000   14.56393000      0.437737   -0.00019200    0.66916600
Se   19.79231000   20.88872000    7.33061000     -0.379542   -0.19371400    0.00364800
Se   18.90591000   19.59958000    2.48319000     -0.701267    0.16180600    0.21781100
Se    4.67091000    2.17778000    9.36687000      0.345445    0.19040300   -0.13518300
Se    2.88126000    3.49301000   18.47766000      0.233206    0.13012800   -0.14360500
Se    9.57848000    9.75374000    6.83722000     -0.433528   -0.20400200    0.49527300
Se    4.33564000    9.56236000    1.09320000     -0.189631   -0.26497500   -1.01934600
Se    6.61129000   16.54783000    5.83136000      0.225312    0.98975200   -0.13243700
Se    5.23464000   12.10128000   17.21283000     -0.003923   -0.30260400    0.46074500
Se    1.07780000   20.17972000    9.97319000     -0.896641   -0.34781400    0.23394000
Se    2.03439000   17.62557000    1.44949000     -0.331376   -0.12961900    0.12309900
Se    8.61798000   22.22410000    8.85438000      0.749524   -1.11624200    0.58415800
Se    7.10752000    3.03351000    0.94585000      1.054149    0.13472400   -0.27941100
Se   10.90261000    4.72421000    9.29607000     -0.030968    1.05645000   -0.40042200
Se    8.80320000    6.07556000   17.98927000      0.176873    0.11015800   -0.72867400
Se    8.77699000   12.48087000    5.87224000     -0.201242   -0.79588700    0.89673100
Se    8.11935000   13.87477000   17.66581000      0.216017    0.11781900   -0.14886700
Se   11.83989000   20.72846000   10.20382000      0.206109   -0.42973800    0.03305000
Se   11.49522000   13.41758000   18.66322000      1.035323   -0.31283100   -0.81953200
Se   15.34875000    1.02414000    7.73750000      0.636248   -0.66717900    0.00660500
Se   15.53536000    2.46610000    0.69583000     -0.320086   -0.09490100   -0.76915900
Se   16.34141000    3.88331000    8.47587000      0.185215    0.19557900   -0.58325100
Se   14.05123000    7.70252000   15.76919000     -1.298329   -1.27332100    0.53330200
Se   17.32206000    8.90565000    8.44106000     -0.608764    0.50923700    0.27342600
Se   15.19091000   14.26461000    0.55780000      0.600010   -1.47907100    0.46284500
Se   12.46991000   18.47285000    5.55631000      0.268439   -0.60505600    0.39606800
Se   17.60541000   18.17110000   18.19280000     -0.133486    0.25772100   -0.00904500
Se   20.74226000    2.16033000    9.99263000     -0.083923   -0.19488000   -0.11667800
Se    0.57436000   21.80106000   14.30148000      0.289555    0.60542600    0.93180000
Se   19.49153000    8.18923000   10.20596000      0.240434    0.00096100   -0.25845000
Se    0.06912000    6.54277000   17.60245000     -0.540527   -0.80997000   -0.27759500
Se   21.23649000   11.79092000    6.94640000     -0.535174    0.03986100    0.20278000
Se   19.83960000   10.86666000   17.12677000      0.482881    0.13711100    0.69165700
Se   19.01628000   17.03817000    7.89436000     -0.324633   -0.61565400   -0.68808600
Se   18.78599000   16.82709000   15.91977000      0.338670    0.40338000   -0.93417600
Se    2.70445000   21.88900000   11.15037000      0.120671   -0.33133700    0.64410200
Se    2.25524000    1.92085000   14.70662000     -0.128104    0.24693700    0.83469600
Se   22.35516000    7.81546000    7.77704000      0.608491   -0.63227600    1.27093200
Se    1.50276000    9.81160000   16.00780000      0.278938    0.07585200   -1.12241700
Se    3.06650000   15.10546000    7.03709000      0.821756    0.22743400    0.44115300
Se    2.79062000   13.59677000   16.31747000      1.388777   -0.84779200   -0.09815100
Se    0.60527000   17.12452000    7.37132000     -0.632744   -0.08308800    0.66916000
Se    3.68766000   19.97835000   14.01539000     -2.147004    0.07268900   -1.40185600
Se    6.57968000    0.49615000    2.75182000      0.352395   -0.68652700   -0.58031300
Se    7.11162000   21.66063000    0.78978000     -0.525169   -0.14413900    0.41691200
Se   10.18279000    6.85606000    6.29699000     -1.079700    0.05248700    0.09574100
Se    4.74792000    4.37165000   14.06797000     -1.654942   -0.22592200    0.51787300
Se    4.56463000   12.55908000    4.83807000      0.387037    0.45815000    0.55468800
Se    9.37897000   14.04520000   14.81426000      0.343887    0.24785300   -0.40318700
Se    6.82659000   18.04902000    3.75048000      0.674368   -0.34834900    0.61662100
Se    7.85696000   17.59981000   14.37412000      0.874079   -1.21688900    1.22339400
Se   13.97905000    0.52266000    3.45647000      0.503397    0.13847100    1.38814900
Se   13.62383000    0.40573000   15.91891000      0.232970    0.18883000    0.59547900
Se   13.75494000   10.06265000    4.49432000     -0.846961   -0.75860600    0.00712700
Se   10.96600000    5.63016000   14.15645000     -0.086708   -0.22546000   -0.73175300
Se   13.96153000   12.16287000    5.68660000      0.255900    0.87482200   -0.15990200
Se   13.69050000   14.89457000   15.66079000     -0.474508   -0.47181300    0.39015000
Se   11.59908000   19.28719000    7.84983000      0.366704   -0.22636000   -0.12359900
Se   11.79857000   19.13054000    1.02977000      0.858929   -1.32814800   -0.55741500
Se   19.11276000    1.45183000    6.59792000      0.837254   -0.04155500   -0.24723900
Se   19.28542000    1.31332000   16.00432000      0.116087    0.78610100   -0.41649000
Se   20.10076000    5.08600000    7.34286000     -0.529391   -0.45085100   -0.25667400
Se   18.89008000    6.36804000   15.88228000      0.064260   -0.06726900    0.40611400
Se   19.15564000   12.51280000    4.09697000     -0.601200   -0.69492400   -0.90184100
Se   17.14909000   14.55384000   13.49735000      0.066613    0.06698500    0.45821900
Se   16.63222000   18.30889000    4.48223000      0.256896   -0.03176500   -0.13709300
Se   16.88688000   20.60602000   15.94932000     -0.244356   -0.15908000    0.54281300
Se    1.99247000    8.20939000    5.14968000      0.339322   -0.37389700    0.29799100
Se    2.77205000    6.48448000   13.79484000      0.301575    0.84497600   -0.87396900
Se    1.15536000   11.73743000    4.92269000      0.271351    0.67463000    0.57829600
Se    4.13466000   10.15612000   14.90536000     -0.603839    0.16166500    0.62699700
Se    5.55921000   14.49250000    7.91183000     -0.053864    0.54131600   -0.05073500
Se    3.44692000   17.40415000   17.17379000      0.447237    0.12151200   -0.04856500
Se    2.38795000   20.83391000    6.95110000      1.820504   -0.61884300    0.64108200
Se    5.65232000   22.51531000   14.74820000     -0.081225    0.41257600    0.14573100
Se    8.93261000    0.99928000    5.58025000      0.061651   -0.03182700   -0.98298100
Se    7.13121000    1.64119000   17.62654000     -0.418459    0.23903000    0.55429800
Se   13.34277000   11.79620000    9.49674000      0.227395   -0.07740300    0.27727000
Se   10.25925000   10.11924000   17.40903000     -0.708831    0.22909600    0.14396800
Se    8.04904000   13.89623000    8.59109000      0.189304    0.39408300    0.05317400
Se   11.65059000   17.09764000   13.49754000      0.792927   -1.89544200    1.47166800
Se   10.93566000   20.57225000    4.45580000      0.237669    0.55949000   -0.37493800
Se   10.36795000   17.45070000   16.98235000      0.431742    0.57009700    0.63418700
Se   10.65196000    3.87341000    5.75446000     -0.264386    0.23180600    0.58673600
Se   17.48274000    4.33025000   17.20045000      0.024558   -0.52890400    0.43825100
Se   17.10893000    7.31559000    5.64961000      0.207164   -0.56020800   -0.75826200
Se   16.72056000    8.28869000   12.30028000     -0.244144    0.42176200    0.42666100
Se   17.41648000   10.95822000    5.14794000      0.121076   -0.13034500    0.49066600
Se   14.10272000   18.52536000   16.62007000     -0.953035   -0.31304900    0.33949500
Se   15.86717000    2.43103000    4.48170000     -0.345852    0.69356000    0.64122400
Se   19.20530000    2.82819000   12.30341000     -0.746906   -0.19771900    0.17576400
Se    0.07271000    2.95314000    5.64687000      0.570453    1.13988900   -0.12202700
Se    1.39271000    4.51238000   16.07336000     -0.358189   -0.43180600    0.39583200
Se   18.10051000   13.41343000    8.04315000     -0.115783    0.19538300   -0.67875700
Se   22.42004000   12.85979000   13.27679000      0.485741    0.51662600    0.22729700
Se   19.90218000   15.16771000    5.00542000      0.002802    0.04892500   -1.27293700
Se   19.51850000   19.58759000   13.88108000     -0.897211   -0.41715100   -0.23539000
Se   21.77966000   18.23137000    9.21426000      0.322494   -0.10196000   -0.11546900
Se   20.45750000   20.14071000   16.34331000      0.326527   -0.22706700    0.31085800
Se    3.20961000    0.79486000    5.38098000      0.442207    0.16781500   -0.37441100
Se    6.92744000    2.09551000   14.24951000      0.791247    0.14426700    0.47978700
Se    1.93709000    7.35989000    1.92102000     -0.177904   -0.38696200    0.37649100
Se    5.51275000    7.03092000   11.33329000      0.028520    0.44691300   -0.32916000
Se    1.51423000   14.67374000    2.06563000      0.103804    0.11445000    0.03843400
Se    5.94633000   15.15985000   14.42261000     -0.145286    1.00776600    0.75351400
Se    4.60312000   17.84050000    2.87544000      0.031893    0.44619500   -0.23032800
Se    4.82285000   17.90221000   11.46018000      0.694527   -0.26846000    0.06696600
Se   10.34567000    1.49574000    3.29693000     -0.364501    0.08802200   -0.32767400
Se   10.71528000    0.62207000   16.52416000     -0.354577    0.11388800    0.13938000
Se    9.47469000    7.85003000    2.23531000      0.196121   -0.14976500    0.29973800
Se    6.76663000    7.97739000   15.03515000      0.285107   -0.53649100   -0.49557800
Se    9.90098000   11.27207000    4.14609000      0.897118    0.32414400   -0.52274900
Se    9.92085000   11.38707000   11.75904000     -0.226347    0.09689100    0.35095300
Se    9.28361000   19.49155000    1.81341000     -0.596299    0.17016200   -0.03997000
Se   16.45095000   17.81450000   12.69713000      0.325492    0.03081100   -0.90837500
Se   14.40076000    3.84262000    5.76402000     -0.614346   -0.54322100   -0.47018700
Se   16.03563000    0.52474000   15.85748000     -0.164291    0.41263200    0.25056600
Se   16.80007000    5.31619000    4.23567000     -0.166212    0.61039500    0.83905100
Se   13.13648000    9.26187000   10.57141000      1.431504    0.76951900    0.85564300
Se   15.35199000   11.13392000    2.65960000      1.166488    0.38584600   -0.90689200
Se   17.11335000   13.56103000   16.50963000     -0.814220   -1.32031300    0.46282200
Se   16.09623000   16.09181000    2.98568000     -1.650174    0.65373300    0.47413700
Se   14.78633000   22.20897000   12.46969000     -0.231795   -0.37985200   -0.33548300
Se    0.31025000   20.46252000    6.39602000     -2.067775   -0.41700100   -0.90428500
Se   20.28755000    0.76623000   13.33693000      0.583010    0.55925300   -0.10622700
Se   21.30781000    6.66687000    4.59977000     -0.376286   -0.21044900   -0.97598900
Se   19.95968000    7.92868000   14.13715000     -0.086207    1.63521000    0.31212900
Se    0.65206000   14.25540000    6.04720000     -0.672419   -0.69529200   -0.26718900
Se    1.81667000   14.76809000   14.61163000     -1.482602    0.34711400   -0.23329600
Se   21.17026000   17.65252000    4.30326000     -0.066752    0.61853000   -0.10889400
Se   21.63240000   21.53166000   10.45475000     -1.092474   -1.09381300    0.24905500
Se    2.88611000    4.15508000    3.22280000     -0.371104   -0.41235600    0.79456800
Se    1.92100000    4.07876000   11.55441000      0.236064   -0.78823900   -0.49152000
Se   21.67941000   11.07630000    1.46929000     -0.035868    0.44703100    0.38869000
Se    1.40656000    9.54044000   11.60879000      0.430536   -0.41683100    0.62948400
Se    0.41730000   17.33524000   18.23401000     -0.937124   -1.49436400   -0.59869500
Se    3.91868000   16.14644000   13.20595000      0.212908    0.59657400   -0.03863100
Se    2.53341000   20.45709000    2.94713000     -1.433321    0.22341300   -1.31738800
Se    5.46132000   20.20698000   15.33701000      1.448574   -0.60471600    0.94001600
Se    7.30903000    3.73043000    4.59408000      0.635441   -0.90028600    0.14151500
Se    9.69446000    3.48885000   14.38836000     -0.268911    0.05255900   -0.47377700
Se    4.38200000    6.22673000    5.33131000      0.050066   -0.48531700    0.07388200
Se    8.37979000   11.06489000   16.04767000      0.033351   -0.21280600    0.53550100
Se    7.04229000   14.62505000    0.72950000     -0.143933   -0.91734400    0.37138300
Se   11.59958000   14.41431000   10.48948000     -0.066039    0.60941300    0.42660800
Se    6.82724000   20.76752000    6.11357000     -0.135892   -0.16572400    0.16024600
Se   10.84809000   21.00627000   14.00009000     -0.117834   -0.94727900    0.43862700
Se   12.66488000    4.11591000    1.99316000      0.725022   -1.10349000    0.49762600
Se   13.06255000    6.19392000   11.06407000     -0.255100    0.32341900    0.11749900
Se   13.48012000    7.32388000    2.56707000     -0.333349   -0.13329900    0.81402200
Se   11.22960000    9.58346000   14.03640000      0.943311    0.41663000    1.59294500
Se    8.12637000   14.50137000    4.82545000     -0.058871   -0.28912100   -0.69755200
Se   15.74402000   13.83636000    9.99460000     -1.111220   -0.45993200   -0.21859600
Se   14.42865000   20.24002000    3.79464000      0.275015   -0.70879200   -1.46790700
Se   14.30507000   20.03607000   13.42308000     -0.871521   -0.45185200    0.36178300
Se   18.40572000    6.15302000    1.46357000      0.592721   -0.05398300   -0.06547400
Se   14.97170000    5.96121000   14.57709000      0.082070   -1.14322100   -0.29630500
Se   19.42747000    8.61841000    3.55047000      0.072105   -0.25004100   -0.50526000
Se   20.04665000   13.88340000   11.30186000     -0.605103    0.11362200   -1.12040300
Se   21.36397000   14.96508000    2.08261000      0.119520   -0.40505800   -0.75506300
Se   17.17644000   16.75693000   10.25389000      0.645477    0.62038500    0.89130600
Se   17.81368000    0.76253000    3.71148000     -0.830806   -0.91248500    0.27409800
Se   16.11477000    1.26140000   10.62422000      0.381335    0.45409400   -0.01176800
