384
22.54784000 22.54784000 18.93360000
Ge    6.14127000    4.41070000    9.45356000     -0.290193   -0.05615200    0.65364500
Ge    4.76044000    7.64446000    2.75988000      0.055050   -0.42122000    0.09835200
Ge    2.86012000   12.43991000    6.96832000      0.028458   -0.09415200    0.08845700
Ge    6.71758000    9.04179000   17.11786000      0.160716    0.45139700   -0.09909800
Ge    4.02091000   13.58924000   10.03691000     -0.330127   -0.76452300    0.16966500
Ge    8.76300000   17.29934000    0.37589000      0.358534    0.29807600    0.05266900
Ge    6.22856000   18.13459000    7.91842000      2.241617   -0.07799600    0.23186700
Ge    4.81519000    2.47616000   16.14079000     -0.005511   -0.29655300   -0.63938700
Ge    9.55418000    7.29800000    9.02062000     -0.021192   -0.23403000   -0.10101000
Ge   11.33249000    5.63481000    0.65413000     -0.276259    0.81298900    0.00441200
Ge   12.30842000    8.13206000    8.55615000     -0.371376    0.03632100    1.03167200
Ge    9.54595000   12.10341000    0.37411000     -0.233154   -1.17737000   -0.02205600
Ge   10.67318000   16.77687000    9.59965000      1.428187   -0.75518700   -1.14106900
Ge   11.73691000   15.70172000    0.45427000      0.595503    1.18167200    1.08776900
Ge    9.86511000   21.90797000   10.92964000      0.256121    1.21518400    0.87366100
Ge   13.21170000    0.73828000    1.16342000      1.472226   -0.11780700    0.45690900
Ge   18.82324000    5.55688000    9.92915000      0.790697    0.42043200   -0.05084100
Ge   17.40808000    7.58172000   17.79129000      0.178954   -0.35354700    0.62135200
Ge   17.64894000   14.45434000   11.21666000      0.103685    0.46908900   -0.47423900
Ge   17.40082000   10.93374000   17.97957000      0.150197    1.02633100    0.06419000
Ge   12.78859000   14.86685000    8.19115000      0.852119    0.02262800    0.99174300
Ge   17.48050000   15.84786000   18.68965000     -0.282728   -0.61964500   -0.13953400
Ge   15.64864000    3.92951000   10.82039000      0.260921   -2.67838800    0.44902800
Ge   18.32916000    2.51399000   18.75188000     -0.390070   -0.03776900    0.11051100
Ge    1.65718000    5.95260000    9.74858000     -0.770372   -0.79088400   -0.69139900
Ge   20.37015000    3.37679000    4.86755000     -0.783755    0.59133900   -0.07525500
Ge   22.51382000   10.39964000    9.48989000     -1.288742    0.25237700    0.63539200
Ge   20.52531000    9.14875000    0.34788000     -0.647821   -0.27976100   -0.59087700
Ge   20.11392000   14.70025000    7.27696000      0.631287    0.46783900    1.35029600
Ge    4.70097000   15.07504000   17.06339000      1.336236    0.06138300    0.03840900
Ge   18.13169000    0.14239000    8.45115000     -0.363116   -0.74830100    0.50984100
Ge    0.15854000   19.60314000    3.68467000      0.270838    0.35399900    0.45769100
Ge    3.36698000    8.00068000    7.41127000     -0.191015    0.40912600   -0.62129200
Ge    1.91666000    7.80091000   18.53716000      0.548358   -0.85214900    0.34737300
Ge   20.86927000   10.65192000    3.94823000      0.094960   -0.28864000   -0.71562700
Ge    4.85667000   12.83033000   14.40552000     -1.558038    0.21461800   -0.00398600
Ge    4.14053000   16.43057000    5.13812000     -0.924194    0.01846200   -0.00855900
Ge    1.19056000   19.46657000    0.18271000     -0.668156    3.42619700   -0.21227300
Ge    2.63167000   17.94448000   10.19475000      0.426515    0.26960900   -0.40195000
Ge    1.30125000    1.67489000   17.97849000     -0.491118   -0.81750600   -0.90341100
Ge    9.96853000    2.72107000    8.12524000     -0.258761    0.94114900   -0.19294200
Ge    6.73802000    5.74339000   16.40757000      0.967465   -0.08941500   -0.76939300
Ge    8.54183000    8.37102000    4.77371000      0.324914   -0.22404600    0.27853400
Ge   10.86780000    6.91578000   16.54889000     -0.302578    0.05583100   -0.05205300
Ge    6.83037000   15.91949000    9.90706000      0.072652    1.24785400   -1.04196800
Ge   10.45373000   15.13692000   16.91397000     -0.724666   -2.15797600   -0.97623900
Ge   10.17497000   21.80788000    6.78884000      0.119219   -0.13199100   -0.11666800
Ge   10.69661000    1.04631000   13.55153000     -0.332480    0.44883100    0.52690400
Ge   12.42313000    7.69668000    6.02710000      0.429629    1.14700000   -0.59811600
Ge   15.11996000    3.15401000   17.18602000      0.012236   -0.32709900   -0.07279900
Ge   15.51450000    9.28536000    6.19327000      0.772156   -0.59433500    0.28168900
Ge   14.87958000   12.67346000   15.79609000      0.751308    1.00358800    0.18010700
Ge   12.16211000   13.95467000    5.11883000     -0.724774    0.01581700    0.60919600
Ge   15.55903000   20.05607000   18.44530000     -0.215320   -0.71959300   -0.51299900
Ge   14.50543000   20.85287000    8.48532000      0.474386   -0.02137700   -0.06464200
Ge   18.09761000   22.22256000   13.71788000     -1.043400   -0.50012600   -0.59700900
Ge   22.07578000    3.66382000    8.57645000     -0.110020    1.14550200   -0.02933800
Ge   20.00446000    5.49432000   13.79915000     -0.176957    0.11002600   -0.07204900
Ge   18.82942000   11.19329000    7.22217000      0.425498   -1.03764600    0.17103900
Ge   22.47595000   14.77776000   16.26027000     -1.151352    0.51063100   -0.07293200
Ge   17.90169000   16.32986000    5.65968000      0.213563    0.53084200    0.63308500
Ge   16.16217000   17.99220000   15.41633000      0.585646    0.40413900   -0.32505000
Ge   22.23153000    0.61653000    6.12414000     -0.309147   -1.53293000    0.80899600
Ge   19.06599000   22.03328000   17.42655000     -0.261047   -0.89708800    0.49204800
Ge    7.29270000    0.86908000    7.55639000     -2.228718    1.40217200   -1.34062900
Ge    3.44911000    2.50873000   12.72230000      0.367006    0.45193100   -0.26519000
Ge   22.32115000    9.83361000    5.96454000      0.837857   -0.58925500   -0.74633400
Ge    2.87791000    7.58343000   11.12700000      0.868958    0.05262400    1.41986300
Ge    0.08662000   15.68274000    4.13732000      0.530063   -0.26265800   -0.58107600
Ge    2.75041000   17.95270000   15.02998000     -0.598561    0.24234400   -1.48154900
Ge    4.49092000   21.33093000    9.51924000      0.589903    0.08351000    0.13191600
Ge    9.21163000   19.50383000   16.37489000     -1.030984    1.05382400   -0.76650800
Ge    5.55321000    4.35964000    2.79789000      0.915272    0.00519600   -0.10436000
Ge    9.25732000    2.82627000   16.97475000      0.651450    0.45762600   -0.04679700
Ge    6.82919000    6.19291000    5.00273000      0.831583   -0.77947700    0.56576100
Ge    8.77390000    9.84977000   13.93777000     -0.998532   -0.63447700   -1.18374900
Ge    5.31988000   14.73737000    3.69998000      0.000846   -1.05893000   -0.29191600
Ge   11.37590000   11.99161000   15.37202000     -0.606167   -0.38423500    0.54414200
Ge    8.21671000   21.32414000    3.93626000     -0.881574    0.48706700    0.41650000
Ge    9.47177000   16.10961000   12.77766000     -0.705354   -0.16910600    0.38086100
Ge   12.33534000    2.25769000    5.17671000      0.690419    0.14792200   -0.29885900
Ge   12.94034000    4.34800000   14.89461000      1.126293    0.29193600    0.42353800
Ge   17.74624000    3.41163000    6.56062000      0.266294    1.23041600   -0.83284700
Ge   14.89861000    9.77859000   14.64697000     -0.189941   -0.36892100   -0.82221200
Ge   14.59345000   13.79699000    3.17555000      1.130886   -0.19060600   -0.04167300
Ge   13.41138000   15.78684000   11.81452000     -0.036794    0.20235900   -0.55235200
Ge   10.16782000   18.15668000    4.49075000     -0.708059    0.08106300    0.22926600
Ge   12.27336000   20.19079000   16.03374000      0.283386    0.35220900    0.22108700
Ge    0.76876000    6.12711000    6.11963000     -0.387249    0.22980600   -0.81598000
Ge   22.11480000    3.89895000   12.43530000     -0.380987    0.31987300   -0.03213300
Ge   20.12037000    8.44648000    7.76900000     -0.924552   -0.27194500    0.10193900
Ge   17.45063000   10.77831000   11.88077000     -1.316859   -0.45680300    0.82322900
Ge   20.60875000   17.00828000    0.48490000     -0.004791   -0.38062100   -0.28758400
Ge   19.36678000   15.55967000   13.88431000     -0.193383    0.58227800    0.00383600
Ge   18.69661000   20.79175000    4.98772000      0.321564    0.65621800   -0.05038800
Ge   21.46505000   20.69673000   13.07594000      0.960508   -0.46124200   -0.95756300
Ge    3.23809000    1.71879000    2.93009000     -0.502545   -0.77284200    0.76836100
Ge    5.35366000    1.06715000   11.77987000      0.260065   -0.02794500   -0.96975900
Ge    5.39536000    9.70270000    4.15376000      0.633930   -0.96931200    0.72580200
Ge    7.00884000    4.85837000   13.57943000      1.359081    0.17680100   -0.81817100
Ge    5.40713000   11.98679000    0.74953000      0.434418   -0.00690400    0.14123200
Ge    4.08540000   10.16167000   12.36881000     -0.249005    0.83039400   -0.16174700
Ge    3.26777000    0.50830000    8.00770000      0.073556    1.03106900    0.01404200
Ge    7.40349000   19.20284000   12.88061000     -0.292201    0.16047800   -0.28602200
Ge    9.51785000    3.85956000    2.09132000     -0.787403   -0.62534300    0.37608800
Ge    9.91030000    5.03061000   11.65461000     -0.120723   -0.66992500   -0.22774100
Ge   11.63118000    8.98566000    1.82773000      0.278500    0.25234900    0.09421700
Ge   11.35980000    8.36034000   12.09066000      0.982120   -1.10363500   -1.51467700
Ge    8.83662000   13.48242000    2.61297000      0.127432    0.27382500   -0.55133500
Ge    8.00456000   12.99604000   10.86023000      0.523318   -1.31611800   -0.35196600
Ge   11.32430000   21.25884000    1.95140000     -0.268072    0.98959500   -0.23511000
Ge   11.72976000   19.25344000   12.50114000      0.823198    0.05549800   -0.59330700
Ge   22.11756000   21.97806000   16.90394000      0.004104    0.13147700   -0.89453200
Ge   13.45790000    0.98432000    9.30138000      0.089115   -0.09794500    0.25719600
Ge   16.10381000    6.49827000    1.99288000     -1.041340    0.13519500    0.47998800
Ge   15.67501000    6.25183000   11.10039000     -0.602975    2.73369500    1.01685000
Ge   17.66803000   12.35314000    1.65734000      0.309619   -0.34506500    0.03854000
Ge   15.63247000   15.97180000    7.37343000     -0.580361    0.66410400    1.09670200
Ge   16.95511000   21.54107000    2.24278000     -0.259224   -1.19668300    0.36682000
Ge   15.91488000   20.05503000   11.22300000     -0.107407    0.10396000   -0.26998700
Ge   20.02507000    1.20722000    2.85217000     -0.229038    0.36689000    0.13295300
Ge    0.42210000    0.88191000   10.90760000      0.500889    1.32143200    0.43583500
Ge   21.89345000    7.30090000    2.14567000     -0.212783   -0.31347600   -0.16011900
Ge    0.05860000    8.86733000   13.70004000     -0.480077    0.43465400    0.48510800
Ge   20.80024000   12.80061000   18.65092000     -0.635645    0.12227200   -0.07980600
Ge   22.39135000   15.18855000    9.26451000      0.383112    0.28280200   -0.21846600
Ge    3.76052000   20.96555000    4.80271000      1.098653    0.07858300    0.72126500
Ge   19.39374000   18.37789000   11.07665000     -0.435101   -0.13552600   -0.04030000
Se   20.84492000   22.41058000    0.84063000     -0.208383    0.19236900   -0.61807400
Se    0.90562000    1.30523000    8.47727000      0.527743   -0.20356200    0.28509700
Se    3.77724000   10.98744000    3.07576000     -1.443181    1.11764600    0.21698800
Se    0.45970000    6.45258000   13.64421000     -0.649790   -0.15321800    0.26388000
Se    0.59818000   13.26972000   18.06313000     -0.191582   -0.41586200    0.09969500
Se    1.13373000   12.61445000    9.17698000     -0.172807    0.83743700    0.25835500
Se    1.88350000   17.20753000    4.72334000     -0.289123    1.83306000    0.02214800
Se    2.34185000   15.55895000   10.29825000     -0.874935    0.16474200    0.36920200
Se    4.38548000    1.91115000    0.77178000     -0.311612    0.26721700    0.18545100
Se    7.24135000    3.01969000   11.64270000     -0.209870    0.75666900   -0.65954000
Se    7.12531000    6.56986000    2.53312000     -0.940637   -0.06004800   -0.51223500
Se    9.10355000    7.45489000   11.69694000      0.069793   -0.05636500   -0.06524200
Se    7.62725000   10.26802000    0.79341000     -0.062434    0.26701600    0.34330100
Se    6.38148000   11.21553000   13.49698000      0.063553   -0.39549500   -0.35297400
Se    5.15330000   20.42283000    2.11650000      0.330361   -0.13062000    0.11288100
Se    9.28748000   18.13480000   10.92312000     -0.855196    1.01415400    0.93932900
Se   11.53400000    2.40840000    0.79117000     -0.788525    0.54556200   -0.04782800
Se   13.22948000    1.99581000   14.01931000      0.002379    0.15535400   -0.96315500
Se   12.23599000    8.26755000   18.45331000     -0.605264    0.19615600    0.17284000
Se    9.14426000   10.03542000    9.52198000      0.203890    0.67051200   -0.74500800
Se   12.63532000   15.16805000    2.90381000     -0.713060    0.53671000   -0.73797800
Se   12.43310000   10.64124000    7.63542000     -0.651677   -0.44495100   -0.92640800
Se   13.78407000   18.53222000    2.18202000      0.569938   -0.07539700   -0.03139600
Se   13.58303000   17.33837000    9.48036000     -0.696226   -0.77747200    0.62918800
Se   18.90791000    3.73533000    2.03453000     -0.274428    0.60725500   -0.52125000
Se   16.85327000    2.12464000   12.96561000      0.338061   -0.38724700   -0.41079700
Se   15.01485000    7.70489000   18.74345000      0.520137   -0.25717500    0.00023200
Se   17.82055000    5.49273000   12.35087000      0.782589   -0.35967500    0.32679100
Se   18.08311000    9.52769000    1.24179000      0.217425    0.15711100    0.25199800
Se   16.42248000   14.12370000    6.00675000      0.245033   -0.54975400   -0.38115200
Se   20.48786000   19.61667000    0.57613000      0.174666    0.23796700    0.68063900
Se   17.12360000   20.00843000    8.32917000     -0.809409   -0.13299000    0.04801900
Se    0.95887000    0.67721000    2.80384000      0.020680    1.08689200   -0.38414900
Se    6.74085000    7.13694000    9.21480000      0.038072   -0.04746100   -0.20856500
Se    7.51150000   11.02427000    3.22243000     -0.505023   -0.24051700   -0.55682400
Se    4.54496000   11.18416000    9.23471000      0.607350   -0.60496700    0.07066600
Se    4.26605000   14.32283000    1.45893000     -0.957260    0.28358600    0.15474600
Se    2.88146000   12.77511000   12.36446000      1.062248   -0.67223900    0.29806200
Se    2.81975000   22.43656000    0.02509000     -0.104909   -0.16775200   -0.77047300
Se    6.44112000   19.56386000    9.89066000     -0.416903    0.55495100    0.56617600
Se   12.22714000    5.99254000    4.45316000      0.193707   -0.46388400   -1.63582500
Se    7.67985000    4.16280000    7.66033000      0.722817   -0.77883100   -0.39344000
Se   11.77577000   11.60982000    1.85215000     -0.125754   -0.79118100   -0.07700600
Se    6.84774000   10.63943000   10.39388000      0.026682    0.60657400   -0.35692800
Se    9.73260000   15.93434000    2.29768000      0.406963    0.16041000   -0.29317100
Se   12.78224000   13.20174000   13.74404000      0.350301    0.75457700   -0.95187900
Se   10.02587000   21.44572000   18.00809000     -0.143565    0.37860800   -0.20179500
Se    8.04052000   22.06049000   12.54236000      0.111972   -0.32344800    0.06763200
Se   15.08983000    5.17090000    0.06268000     -0.511641    0.12571500    0.37816900
Se   16.57669000    6.55913000    8.81947000      0.523388   -0.18845400   -0.51165400
Se   14.63691000   10.69786000    0.38395000     -0.005687    0.28550500    0.00989900
Se   15.07809000   12.22395000   13.26567000     -0.228428    0.09407100    0.00459100
Se   18.15445000   15.67383000    2.21492000      1.217952   -0.35013100   -0.40730300
Se   16.26372000   11.21529000    9.59155000     -0.331653   -0.17235200    0.25374100
Se   16.65223000   22.24722000   18.90674000      0.949721    0.89321700    0.13488700
Se   15.54202000   19.07754000    6.61525000      0.079085    0.68373200    1.14550800
Se   22.47836000    3.20682000    2.02092000      0.422805   -0.69799800    0.53065700
Se   21.44004000    5.87133000   10.80291000     -0.107302   -0.45053700   -0.02261000
Se   21.25106000    5.08955000    0.40853000      0.469506    1.28621400   -0.15585100
Se   21.26187000   11.34238000   12.02564000     -1.322982   -3.06096500   -1.30927200
Se   19.56890000   14.93493000   17.24796000      0.236597    0.37680800    0.78691600
Se   20.68149000   16.22093000   11.91659000      0.004192   -0.01838900    0.38518200
Se   21.04028000   21.98118000    4.27376000     -0.708259   -0.78903700   -0.57639600
Se   18.24692000   21.30823000   10.96819000     -0.170475   -0.60049700    0.48619000
Se    3.82553000    5.68106000    8.43139000     -0.266940   -0.42065400    0.01719300
Se   21.35886000    2.27933000    0.11187000      0.316898   -0.17401100   -0.37405100
Se    2.10628000    9.98113000    8.47967000      1.739837   -0.13135400   -1.00365100
Se    0.94731000    9.92591000   18.28348000      0.083580    0.76344700   -0.08864200
Se    4.04219000   18.30487000    7.60530000     -2.535922   -0.18919500   -0.11329900
Se    0.27188000   17.78035000   15.37612000      0.072769    0.59035700   -1.14483200
Se    0.34568000   18.59053000   12.53133000     -0.199004    0.07333300    0.61623700
Se    1.90809000   21.15955000   17.01336000      0.232004   -0.96449800    0.16352300
Se    2.94238000    4.24000000    5.68391000      0.309208   -0.26975100   -0.12891700
Se    5.67738000    6.73037000   18.32336000     -0.606065    0.23712200    0.50231400
Se    5.57171000    8.79233000    6.49213000      0.077326    0.44791100    0.25854000
Se    3.78833000    7.32594000   16.89686000     -0.372213    0.17621700    0.47507000
Se    6.02203000   14.21665000   11.40207000     -0.822435   -0.46742300    1.45422000
Se    6.47859000   17.18694000   18.52800000      0.011765    0.27299900   -0.22637200
Se    9.12019000   19.49563000    7.05547000     -0.232905    0.00448100   -0.22458800
Se    6.97034000   19.39309000   17.64820000      0.088875    0.45839200    0.55925800
Se   10.97220000    1.75780000   11.27780000     -0.602411   -0.93888000   -0.94166900
Se   11.85453000    4.62343000   17.11848000      0.266403   -0.25415800    0.45457100
Se   14.10750000    6.64683000    7.49715000     -0.703562    0.66684600    0.06530900
Se   13.47546000   10.71297000   16.53286000      0.210749    1.07574400    0.07256200
Se   10.60259000   14.79869000    7.21060000      0.013123    0.30777400   -0.26167200
Se   14.53632000   15.99928000   18.14181000     -0.474298    0.34679300   -0.58380400
Se   12.45719000    0.30370000    6.78929000      0.159553    0.01310400    0.44365100
Se   13.36082000   21.74568000   18.30884000      0.340987   -0.93937100   -0.24706600
Se   13.39301000    3.33014000   10.64029000     -0.612121    0.40047300    0.06279100
Se   22.01290000    3.37109000   15.91266000      0.109914    0.09482300   -0.01439900
Se   19.04005000   11.45238000   10.21284000      0.626840    0.41950900   -0.33003800
Se   16.80421000    9.35219000   16.19168000      1.110093    0.59163000   -0.61249600
Se   13.71578000   16.00069000    5.69182000      0.151148    0.29924800   -0.12932200
Se   20.45685000   13.53057000   14.54640000      0.650322   -0.65942200    1.17177400
Se   19.76817000   20.84453000    7.29274000      0.071032   -0.31949600    0.28989500
Se   18.81501000   19.55694000    2.53662000     -0.054785    0.17382500   -0.46214400
Se    4.61146000    2.23699000    9.25254000      0.404714   -0.18909500    0.27841300
Se    2.82352000    3.45115000   18.54300000      0.674750    0.89307700   -0.21424900
Se    9.55642000    9.76740000    6.70984000     -0.478690    0.15813700    0.67089400
Se    4.41033000    9.51240000    1.23181000     -0.068208   -0.16561400   -1.82459800
Se    6.50426000   16.55731000    5.79181000      1.179053    0.74196000    0.23062400
Se    5.13793000   11.95604000   17.30239000      0.106751   -0.16800400   -0.08506600
Se    0.93584000   20.22362000    9.94021000      0.246515   -1.04806700    0.16880900
Se    1.91375000   17.67511000    1.37368000      0.822768   -1.22976100    1.33955100
Se    8.67302000   22.22365000    8.90093000      1.015435   -1.12169700    0.78880200
Se    7.06300000    2.96458000    0.89430000      1.270556    0.28179000   -0.17962100
Se   10.91777000    4.83162000    9.30060000     -0.481024    0.47437200   -0.05256600
Se    8.86424000    6.06567000   17.90451000     -0.341205   -0.01863200   -0.23193200
Se    8.80300000   12.48178000    5.89579000     -0.602598   -0.27627200    1.36210600
Se    8.22236000   13.85806000   17.78329000      0.406190   -0.41363700   -1.70799800
Se   11.87181000   20.70137000   10.21875000      0.180287   -0.21995500   -0.34932200
Se   11.47715000   13.47355000   18.70035000      1.602117   -1.11913000   -0.66996200
Se   15.34778000    1.11149000    7.59617000     -0.000921   -0.83195000    0.58151900
Se   15.40828000    2.39112000    0.65950000     -0.048277   -0.01006800   -0.35171800
Se   16.43098000    3.82298000    8.56623000      0.088749    0.08680700   -0.39876300
Se   14.03751000    7.69846000   15.75499000     -1.383328    0.22671100    0.67127800
Se   17.27489000    8.89270000    8.51646000     -0.072946    0.65482400    0.00984700
Se   15.19399000   14.23830000    0.69432000      0.286662   -0.91896500   -0.22688300
Se   12.43633000   18.44038000    5.48756000      0.365305   -0.48391600    0.59435100
Se   17.55847000   18.21247000   18.14945000      0.108353    0.35681000   -0.04341200
Se   20.72156000    2.17105000   10.06064000      0.113621    0.02731200   -0.17205600
Se    0.59405000   21.77814000   14.34836000     -0.257948    0.25291400    0.64132300
Se   19.52131000    8.39713000   10.20048000      0.064655   -0.87809100   -0.46687400
Se    0.04844000    6.51490000   17.61968000     -0.397897   -0.87399000   -0.09062900
Se   21.23200000   11.80698000    6.87707000     -1.175267    0.63045000    0.91036100
Se   19.80682000   10.77199000   17.25244000      0.691083    0.21057100    0.05483400
Se   18.98273000   17.07242000    7.95959000     -0.197596   -0.94424700   -0.95872500
Se   18.71660000   16.98012000   15.79815000      0.598327   -0.24763900   -0.28332400
Se    2.69868000   21.89022000   11.11941000      0.422608   -0.50129700    0.17965500
Se    2.27522000    1.93642000   14.66057000     -0.068442    0.39911500    0.91718800
Se   22.45703000    7.78743000    7.70536000      0.513755   -0.12614800    1.53187500
Se    1.43414000    9.73925000   15.98839000      0.573546    0.14140900   -1.18581400
Se    2.94568000   15.21953000    7.04896000      0.799079   -0.31374900    0.47334800
Se    2.92576000   13.58124000   16.29543000      0.321765   -1.12711900   -0.54990400
Se    0.68287000   17.04184000    7.47498000     -0.539750   -0.10402300    0.54032900
Se    3.58167000   20.12743000   13.96533000     -1.114470   -0.62958500   -0.24952800
Se    6.56905000    0.57376000    2.84293000      0.267280   -0.86231200   -0.80856800
Se    7.00723000   21.49095000    0.76901000     -0.443247    0.19632400    0.40928800
Se   10.16376000    6.76979000    6.17475000     -1.250671   -0.28609700    0.43859300
Se    4.76251000    4.30511000   13.92186000     -2.049971    0.00663700    0.74956600
Se    4.42701000   12.60098000    4.95602000      0.861035    0.67432500   -0.03555200
Se    9.45285000   14.18102000   14.78049000      0.710974    0.00835700    0.17843100
Se    6.84944000   18.03960000    3.88123000      0.125119   -0.29708600    0.07344700
Se    7.89608000   17.47486000   14.52998000      0.528796    0.00971300   -0.31109300
Se   13.91834000    0.48618000    3.47552000      0.030493    0.32258400    0.11527400
Se   13.51377000    0.43303000   15.84011000      0.604062    0.10092300    0.91045400
Se   13.80692000   10.09725000    4.43399000     -0.811743   -1.00709300    0.32059100
Se   11.07090000    5.67570000   14.14904000     -0.754760    0.21554600   -0.94995300
Se   14.03682000   12.14827000    5.67065000      0.317925    0.66901400   -0.00935700
Se   13.73029000   14.93164000   15.58526000     -0.420279   -0.62594000    0.66841500
Se   11.60669000   19.27531000    7.91089000      0.261373   -0.03419800   -0.28281600
Se   11.75492000   19.10855000    0.92421000      0.540046   -0.69664700   -0.05574400
Se   19.11544000    1.49837000    6.65744000      1.067328   -0.10935700   -0.63012900
Se   19.43529000    1.36242000   15.96872000      0.031211    0.26663200   -0.11205100
Se   20.12916000    5.00995000    7.30941000     -0.589724   -0.29406900   -0.18273100
Se   18.89544000    6.39653000   15.89114000      0.455899    0.09408900   -0.46646400
Se   19.22833000   12.54677000    4.05076000     -0.793972   -0.29437300   -0.74478300
Se   17.19242000   14.51116000   13.46636000     -0.370848    0.11233600    0.84245200
Se   16.66735000   18.28912000    4.50637000      0.283005   -0.19165800   -0.24448200
Se   16.91774000   20.61801000   15.93965000     -0.420466    0.08413600    0.60151000
Se    2.03452000    8.26765000    5.21806000      0.270853   -0.62515900    0.25987400
Se    2.75282000    6.51204000   13.76103000      0.968051    0.83537800   -0.98197000
Se    1.03806000   11.86636000    4.95804000      0.597885    0.50606200    0.05236400
Se    4.22487000   10.21458000   14.91230000     -0.587255    0.11370500    0.12120300
Se    5.64228000   14.47368000    7.93610000     -0.309831    0.46072500   -0.07425500
Se    3.43812000   17.17828000   17.06298000      0.668358    0.46387600    1.09628700
Se    2.39485000   20.86319000    7.04597000      1.666146   -0.94638600    0.28207300
Se    5.75108000    0.02864000   14.71302000     -0.158304    0.01094400    0.13813000
Se    8.87829000    0.98411000    5.45082000      0.289598   -0.33529200   -0.66268400
Se    7.13614000    1.64795000   17.68927000     -0.344235    0.26468900    0.32961100
Se   13.27253000   11.84517000    9.38287000      0.273509   -0.16198800    0.75727100
Se   10.35764000   10.00165000   17.46992000     -0.975742    0.33257500    0.02499500
Se    8.00753000   13.98791000    8.55763000      0.370586   -0.01614300   -0.37922800
Se   11.61672000   17.02217000   13.58159000      0.738184   -0.44052200    0.40239700
Se   10.92772000   20.58755000    4.34014000      0.231011    0.24731100    0.32455000
Se   10.31966000   17.46778000   16.90900000      0.776195    0.68997700    0.97004900
Se   10.52478000    3.79969000    5.77715000      0.055389    0.21665400    0.59857600
Se   17.39855000    4.24242000   17.18061000      0.566162   -0.04239700   -0.03954400
Se   17.17387000    7.25481000    5.64124000     -0.167953   -0.11345100   -0.49213800
Se   16.81843000    8.30732000   12.32964000     -0.207097    0.30863000    0.17628300
Se   17.54166000   10.93826000    5.12890000     -0.532358   -0.37988400    0.24342900
Se   14.09460000   18.46602000   16.55200000     -0.591527   -0.60090900    0.30244600
Se   15.91421000    2.48497000    4.44857000     -0.707923    0.72923700    0.53953300
Se   19.30900000    2.79478000   12.25270000     -1.122883   -0.13563300    0.09574200
Se   22.54140000    2.86615000    5.66071000      0.985638    1.52276000   -0.16752800
Se    1.47970000    4.55627000   15.98510000     -0.541901   -0.48981800    0.64516200
Se   18.12323000   13.33669000    8.05959000     -0.065253    0.86473800   -0.67631700
Se   22.34114000   12.81023000   13.19673000      1.723628    1.99265700    1.26132500
Se   19.95912000   15.16076000    4.88136000     -0.481591    0.10354800   -0.27230300
Se   19.50244000   19.64077000   13.85884000     -0.247620   -0.24053200   -0.14185400
Se   21.70022000   18.11877000    9.26178000      0.252614    0.00054700   -0.24204000
Se   20.44784000   20.05277000   16.40219000      0.163990    0.11843900    0.42754400
Se    3.17955000    0.83076000    5.39848000      0.384063    0.16223400   -0.03065900
Se    6.91314000    2.18880000   14.25289000      0.911846    0.39976800    0.61772400
Se    1.93557000    7.37264000    1.99757000     -0.199433   -0.22271100    0.13068000
Se    5.59744000    6.96815000   11.28693000     -0.348293    0.30551900    0.42699400
Se    1.51728000   14.87245000    2.21046000     -0.130617   -0.91205700   -0.63343200
Se    5.99426000   15.15687000   14.40531000     -0.752328    0.41486200    0.73516600
Se    4.56837000   17.89313000    2.90595000      0.317340    0.35741500    0.00464100
Se    4.89218000   17.77152000   11.39535000      0.571179   -0.10091600    0.51671600
Se   10.34550000    1.46258000    3.21896000     -0.524512    0.26247700   -0.26228800
Se   10.72344000    0.66845000   16.46616000     -0.675738   -0.24675100    0.51798000
Se    9.50897000    7.90625000    2.35162000      0.368852    0.12835700    0.07838300
Se    6.83011000    7.96563000   14.86055000      0.070254   -0.89997600    0.54491300
Se    9.81203000   11.35024000    4.18070000      1.610249    0.09403700   -1.02109300
Se    9.76937000   11.39266000   11.80397000      0.234475    0.05368300    0.28675300
Se    9.25118000   19.49782000    1.71891000     -0.425519    0.08270500   -0.28134900
Se   16.51012000   17.80891000   12.58502000      0.122740    0.05505200   -0.53464000
Se   14.33604000    3.82557000    5.73074000     -0.612494   -0.32697200   -0.27951100
Se   16.06332000    0.48203000   15.81225000     -0.471653    0.35145200    0.30570500
Se   16.79854000    5.30578000    4.23927000     -0.029736    0.47165200    0.74803700
Se   13.17798000    9.41416000   10.51900000      0.078396   -0.02777900    1.11722500
Se   15.32476000   11.19702000    2.58866000      1.188343    0.21726600   -0.75494200
Se   17.13948000   13.49483000   16.39949000     -0.642885   -0.97490300    0.66806300
Se   16.04116000   16.13312000    2.90773000     -0.888226    0.39433000    0.13980900
Se   14.73284000   22.23654000   12.42613000     -0.162909   -0.60806500   -0.26047700
Se    0.30957000   20.50649000    6.49597000     -2.121341   -0.50098500   -1.04940700
Se   20.25641000    0.71181000   13.37139000      1.161275    0.89183100   -0.19790200
Se   21.23804000    6.71545000    4.53218000     -0.072582   -0.12949800   -0.40210300
Se   20.00644000    7.97610000   14.15626000     -0.307436    0.15493700    0.36058000
Se    0.60637000   14.21164000    6.00770000     -0.425159   -0.66170600   -0.06674400
Se    1.76348000   14.71974000   14.57873000     -0.594589    0.00629400    0.01674400
Se   21.27783000   17.70023000    4.24467000     -0.883405    0.51065900   -0.01489800
Se   21.62559000   21.51643000   10.37006000     -1.751640   -0.65715500    0.36934800
Se    2.93708000    4.09808000    3.23660000     -0.821401    0.14634600    0.19811900
Se    1.88609000    4.06362000   11.49024000      0.225560   -0.47650800   -0.62035900
Se   21.53894000   11.06107000    1.43668000      0.550432    0.53657800    1.04814200
Se    1.41973000    9.57018000   11.58317000      0.100561   -0.26810400    0.51811800
Se    0.46027000   17.45076000   18.21130000     -1.202155   -2.27010500   -1.04478200
Se    3.89260000   16.12707000   13.31748000      0.570195    0.52020300   -0.19273600
Se    2.42722000   20.59285000    2.84693000     -0.808125    0.14661600   -0.25599500
Se    5.44924000   20.22705000   15.31382000      0.465690   -0.55624600   -0.02613200
Se    7.21588000    3.64012000    4.62463000     -0.290265    0.17904700   -0.70226500
Se    9.63390000    3.49338000   14.36689000     -0.180517   -0.25531800    0.36685100
Se    4.34640000    6.16429000    5.35646000      0.307550    0.38533300   -0.23823000
Se    8.36608000   11.00571000   15.97602000      0.212988    0.41471700    1.26586600
Se    7.19676000   14.60749000    0.68242000     -1.179248   -0.11058200    1.63971500
Se   11.67042000   14.42008000   10.53414000     -0.380820    0.49855100    0.40554900
Se    6.86304000   20.77563000    6.14133000     -0.158717   -0.11009000   -0.00863900
Se   10.89525000   20.92929000   14.03965000     -0.674392   -0.17520600    0.11327900
Se   12.74552000    4.11154000    2.01402000      0.266423   -0.40948600    0.10216500
Se   13.08115000    6.24244000   11.09128000      0.124491    0.47913700    0.06034100
Se   13.42689000    7.23478000    2.58756000     -0.232148   -0.09137400    0.58538100
Se   11.22118000    9.59201000   14.02050000      1.157398    0.53307300    1.76125000
Se    8.19977000   14.53521000    4.73737000      0.063898   -0.09307300   -0.38818400
Se   15.78292000   13.67932000   10.02472000     -0.933756   -0.12867000    0.04825200
Se   14.46499000   20.19690000    3.75090000      0.233562   -0.20192600   -0.96345900
Se   14.32813000   20.05768000   13.50016000     -0.782864   -0.06495100    0.12808500
Se   18.33690000    6.12476000    1.42424000      1.606019   -0.08386700   -0.30741900
Se   14.98680000    6.02513000   14.65649000      0.439820   -1.87032500   -0.78443500
Se   19.50468000    8.54561000    3.65857000      0.125873   -0.11890800   -0.32821700
Se   19.95437000   13.84564000   11.20959000      0.083145    0.34105700   -0.93860800
Se   21.38628000   14.88010000    2.04270000      0.237373   -0.17986600   -0.68634100
Se   17.13287000   16.67544000   10.32493000      0.658694    1.15520400    0.29848600
Se   17.65212000    0.77309000    3.71297000      0.893959   -0.90477700   -0.22824600
Se   16.19421000    1.21626000   10.64256000      0.188018    0.75140500    0.38535800
