384
22.54784000 22.54784000 18.93360000
Ge    5.33962000    3.91423000   10.87241000     -0.543539    0.22067500    0.15278200
Ge    4.73505000    6.87799000    1.64501000     -0.591634   -1.13541400    0.62543300
Ge    4.14278000   11.41416000    7.87909000     -0.005027   -1.16256000   -1.05227500
Ge    6.66626000   10.12227000   17.76033000      0.499049   -0.61048700    0.33423300
Ge    4.79009000   14.71370000    8.89660000      0.414002    0.58667800    1.63418700
Ge    8.20419000   17.25286000    1.08827000     -0.615667    0.17278800   -0.02037500
Ge    8.33760000   19.30181000    8.78909000     -0.535712    0.51012800   -1.06735700
Ge    5.25823000    0.38861000   18.66889000     -0.369050    0.17783600    0.13324500
Ge    7.75325000    5.32696000    9.37290000      1.258978    0.08252400    0.67109700
Ge   11.46237000    5.48341000   18.06635000      0.080294    0.53560600    0.56450400
Ge   11.85538000    7.49136000    9.02413000     -0.361602   -0.31262500    0.25974000
Ge   10.35330000   12.42402000    0.35678000      0.829895   -0.70585000   -1.15141100
Ge   10.24109000   16.72678000    8.84095000     -1.063246   -0.14510300    0.46659800
Ge   12.22656000   15.66936000    0.71990000     -0.107291    0.71314700    1.32518800
Ge   10.15080000    0.04059000   10.43740000      0.592736    0.71065200   -1.03185300
Ge   15.58029000   21.43703000    0.19302000      0.216751    1.00848900    1.42073800
Ge   17.77680000    5.42049000   10.13075000      0.549770   -0.55456300   -1.14704300
Ge   18.49530000    6.99085000   17.99802000     -0.516077    0.10756800   -0.12137400
Ge   18.84164000   14.77977000   10.64685000      0.009762    0.36593900    0.46395100
Ge   18.53437000   11.39036000   17.75300000     -0.496055    0.31461900    1.05897600
Ge   13.82462000   16.93623000    8.80458000      0.322574    0.54299100    0.06733200
Ge   16.72543000   14.80622000    0.18313000      0.831204    0.14649900    0.49546500
Ge   16.13510000    3.48902000    8.88751000      0.159536    1.50024100    0.95073300
Ge   19.14637000    3.83214000    0.09291000     -0.341326    0.49061300   -0.70863100
Ge    0.64373000    5.18660000   10.37536000      1.800415    0.30242900   -0.83841100
Ge   21.88284000    4.64112000    3.05281000     -0.108580    0.45281300    0.21384700
Ge    0.55930000   10.46410000    9.28152000     -0.005579    0.20092600    0.18448300
Ge   21.39319000    9.05631000   18.29679000      0.270150    0.28628700    0.84152000
Ge   21.04359000   15.30700000    9.12108000      0.852262    0.22001200   -0.09034000
Ge    4.09072000   15.33854000   17.81305000     -0.138256   -0.05051000   -0.15585500
Ge   18.77017000   22.42812000   10.10661000      0.003352   -0.47386400   -0.04339100
Ge   20.63834000   20.74061000    1.03819000      0.674193    0.19750700    1.41145700
Ge    2.36821000    6.36698000    8.23637000     -0.412392   -0.17636400   -0.34780700
Ge    1.89792000    7.26217000   16.98166000     -0.810061   -0.31377900   -0.03015100
Ge   20.40264000    8.82630000    5.18550000      0.156558   -0.27489600   -0.05457900
Ge    3.65824000   12.94786000   15.38689000     -0.235983   -0.27446400    0.28671300
Ge    5.36488000   19.19111000    4.62835000     -0.318606   -1.16761700    1.21399000
Ge    0.23901000   18.43719000   17.99164000      0.327262   -0.44779500    0.08356300
Ge    4.35633000   19.44222000   10.32826000     -0.468059    0.07746600   -1.25826000
Ge    2.47689000    1.83168000   17.15847000     -1.052123   -0.19437100    0.36231500
Ge    9.86884000    3.61568000    6.88305000     -1.076687    0.02567800   -0.57784000
Ge    7.10240000    6.62758000   16.09269000     -0.700056   -1.56552800    0.11376800
Ge    8.02454000   11.28949000    4.04542000      0.124776   -0.46523600    0.10975900
Ge   10.05581000    8.09101000   16.90666000     -0.788783    0.82902600    1.40220200
Ge    6.48161000   17.38586000    8.31927000     -0.634069    0.24751000   -0.07312000
Ge    9.71126000   15.64444000   16.26750000      0.186433   -0.51733900   -0.10004500
Ge   10.37706000   21.56962000    6.48221000     -0.077255   -0.69475100   -0.37402800
Ge   10.08999000   21.24225000   14.34955000     -0.301520   -0.78962600   -0.21066300
Ge   12.24658000    6.89874000    5.02869000     -0.249901    0.20200000   -0.61712800
Ge   15.26818000    5.09128000   15.57919000      0.562596    0.27186300    0.59906500
Ge   13.69575000   10.85291000    6.62672000      0.178556   -1.12155500    1.16897600
Ge   15.09643000   11.68510000   15.93951000     -0.734281    0.31181600   -0.03107100
Ge   12.85567000   15.14926000    5.55865000     -0.811657   -0.28321200    0.25714900
Ge   14.56952000   18.11497000   18.90438000      1.313275   -0.15083100   -0.10074000
Ge   13.60618000    0.40284000    9.88392000      0.194104   -0.66212800   -0.08095900
Ge   16.79035000   22.46933000   14.38713000      0.320585   -0.47798800   -0.44323800
Ge   20.10436000    4.84467000    8.90995000     -0.230176    0.06313100   -0.14225400
Ge   21.32566000    6.28500000   13.48199000     -0.524580    0.53764300   -0.08255100
Ge   17.90412000    9.95616000    8.02573000     -0.354858    0.43570000   -1.30465900
Ge   20.56032000   15.52815000   16.93161000      1.326140   -0.81617600    1.53418700
Ge   19.70181000   14.92983000    5.27941000      0.322048    0.73156700    0.09906600
Ge   17.16910000   18.20366000   16.45875000     -0.666237   -0.75362900   -0.68564300
Ge    0.74263000    0.36186000    7.68232000     -0.614368   -0.12050200   -0.92484300
Ge   18.56764000   20.65351000   17.09834000      0.524057   -0.69075200   -0.23464200
Ge    6.63199000    2.59708000    6.82987000     -0.302081   -0.61749700   -0.03355300
Ge    3.10114000    3.56787000   13.85793000      1.285951    0.12130300   -0.06427800
Ge    1.39631000    8.83215000    5.94341000     -0.216397   -0.01447300    0.02329600
Ge    3.75036000    8.27990000   11.25781000     -0.493063   -0.48348100   -0.17826600
Ge    0.85775000   15.60955000    4.24369000     -0.002996    0.75129500   -0.00313400
Ge    2.94223000   17.21177000   15.31646000     -0.607367    0.47110700   -0.85537400
Ge    2.48203000    0.75112000    9.53717000      0.290667    0.25753300   -0.49176300
Ge    6.75845000   18.34180000   16.64252000     -0.404385    0.86626000   -1.04398000
Ge    7.70039000    3.88337000    3.23628000     -0.180359    0.53994900    0.29322300
Ge   10.40694000    2.88937000   15.79910000     -1.017093   -0.29404500    0.14750500
Ge    8.51635000    8.76230000    4.81699000      0.001635    0.45426700   -1.32669300
Ge    8.32752000   10.03465000   13.20260000     -1.116496   -0.16127900   -0.11243000
Ge    6.96883000   14.62940000    3.95736000     -0.352560   -0.00442800    0.26711000
Ge   12.07767000   12.42471000   15.66149000     -1.268777    0.86029500   -0.50625000
Ge    7.59043000   20.03660000    3.46601000      1.073596    0.06081000    0.69859300
Ge    9.29493000   16.43050000   13.38496000      0.225144    0.92659100   -0.65895800
Ge   11.79408000    1.49135000    5.23105000     -0.284041    0.27771800   -0.96266400
Ge   11.99357000    4.43489000   14.46542000      0.620271    0.37250700   -0.91912400
Ge   17.27324000    6.61694000    4.84917000     -0.891271   -0.82579400   -0.15684500
Ge   13.06784000    8.48990000   14.27286000      0.650562    0.11214500   -0.24821900
Ge   14.92946000   12.93443000    3.85963000      1.127260    0.52946200    0.57821100
Ge   13.13347000   15.96086000   12.72691000      0.237234    0.74297000    0.47018900
Ge   11.82511000   17.48751000    4.43095000      0.881772   -0.57285700   -0.26753800
Ge   10.88282000   19.28463000   17.09082000      0.456521    0.66640200   -1.01243200
Ge   22.10831000    3.87126000    5.98628000      0.278964    0.55640500   -0.30437400
Ge   21.95095000    2.54285000   13.73717000      0.702301   -0.39126800   -0.19723500
Ge   18.82600000    7.18928000    7.46882000     -0.121088    0.58190700   -0.35493100
Ge   18.40701000   11.00829000   13.21295000      0.234323    0.20742000   -0.00924500
Ge   21.25388000   16.93219000    1.83015000     -0.130562   -0.05169300   -0.56493500
Ge   18.43629000   15.43444000   14.41612000     -0.083932    0.94033500   -0.77483700
Ge   19.28864000   19.90275000    5.09923000      0.322389   -0.64913700    0.31723400
Ge    0.00909000   20.61627000   13.54414000     -2.573544   -0.46605200    0.61213700
Ge    4.02911000    3.47815000    2.93428000      0.646255   -0.30303400   -0.12471000
Ge    6.01352000    1.92951000   12.68581000      0.266203   -0.11194700    0.51699800
Ge    4.72945000    8.15538000    4.58129000     -0.035972    0.59381200    0.17517800
Ge    7.02400000    5.36066000   13.74366000     -0.238986    0.12660200   -0.01921900
Ge    4.41076000   12.94078000    0.49357000     -0.052232    0.15310600    1.05395500
Ge    3.90785000   11.65387000   12.08852000     -0.369882   -0.38204700    0.30354000
Ge    4.59503000   22.01259000    5.34224000      1.387310   -0.01060700   -0.26656500
Ge    7.02849000   19.81890000   12.31246000      0.373428   -0.00260700   -0.13104100
Ge   11.58303000    3.76732000    3.38914000     -1.174553   -0.28327500    0.34297100
Ge    8.49268000    3.74442000   11.48771000      0.173976    0.18042800    0.21534500
Ge   12.14075000    7.71593000    1.65155000     -1.112401   -0.26843700    0.31210900
Ge   10.81924000    6.94617000   12.65802000     -1.502069   -0.13433100   -0.12361100
Ge    8.24128000   13.31584000    1.55255000     -0.354587    0.46505500   -0.33638800
Ge    8.63305000   14.34404000   11.04433000     -0.207352    0.39129600    2.09380600
Ge   11.46282000   21.54732000    0.40772000      0.436669    0.17537600    0.26959500
Ge   11.06546000   19.66071000   12.32158000      0.179662   -0.01399200    0.35350900
Ge   21.93321000    0.18121000   16.66211000      0.504019    0.75864500    0.49432800
Ge   12.67046000    2.66397000   11.27690000      0.179162    0.75000200   -0.82576500
Ge   16.41240000    9.00701000    1.12129000     -0.502676   -0.53503000    0.41950500
Ge   14.79221000    9.10825000   10.42958000     -0.015460   -0.03690200   -0.26488900
Ge   18.39911000   11.74749000    2.81303000     -0.021867    0.92774300   -0.98980800
Ge   17.00647000   15.53400000    8.75387000      0.409701    0.23230300   -0.09145100
Ge   17.06844000   20.61457000    3.12015000      0.495631   -1.53679900   -4.74042500
Ge   15.09028000   19.55335000   10.76006000     -0.486652    1.10104100    0.29606900
Ge   21.39801000    1.35951000    1.96311000     -0.423428   -0.47641900    0.44758700
Ge   21.28958000    0.87249000   10.53857000     -0.105796   -0.18286300    0.03189000
Ge    0.91111000    8.40114000    1.86947000     -0.281469   -0.14929200   -0.57961100
Ge   21.29454000    9.89281000   12.46419000      0.663156    1.12691700   -0.33203400
Ge   20.59254000   12.90828000    1.11930000     -0.059357    0.04142500    0.55237700
Ge    0.80994000   13.98494000   10.95016000      0.603954    1.13197600    0.02754500
Ge    0.01963000   19.51478000    4.44424000     -0.096283   -0.10691700   -0.09111200
Ge   18.39127000   18.74307000   11.11880000     -0.155465   -0.04361200    0.54579600
Se   20.23408000    0.51719000   18.68382000      1.214966   -0.03812400    0.12408600
Se    1.21313000    2.50382000   11.13996000     -0.008416   -0.31426800   -0.50759500
Se    2.65367000    9.81787000    2.89163000     -0.338550    0.00084000    0.27708300
Se   22.37089000    7.65482000   11.22144000     -0.004325   -0.10228500    0.27921800
Se    0.42414000   11.99972000    0.48564000      0.750530    0.60367300    1.11699800
Se    1.89863000   12.83091000    9.10274000     -0.143050   -0.74060700   -0.24263700
Se    2.03916000   18.09421000    4.94732000      0.254996   -0.62584300   -0.04091500
Se    1.92496000   16.50140000   11.24969000     -1.196299   -0.13934800   -0.39017400
Se    6.07276000    2.14414000    1.98029000      0.284763   -0.69174100   -0.18484100
Se    7.20100000    1.82390000   10.54074000     -0.357726   -0.40917600   -0.14746000
Se    7.09338000    6.19054000    1.88084000      0.665089   -0.70503200    0.06756900
Se    8.32021000    7.23749000   12.16126000      0.535755    0.23765200    0.41946100
Se    7.37338000   10.61165000    1.10972000      2.108360   -0.04309700    0.13225800
Se    6.48308000   13.40420000   12.89362000      0.109321   -0.38210000    0.07813800
Se    4.79873000   20.39548000    2.50963000     -0.225696    0.03885200   -0.40635000
Se    9.18335000   18.59736000   10.89512000     -0.308477   -0.61166600    1.27526000
Se   13.95548000    0.71977000   18.68708000      0.180367   -0.05108000    0.54137500
Se   11.45255000    1.43489000   13.89537000      0.263271    0.46999100    0.12155900
Se   12.38353000    8.17143000   18.17660000      0.526624   -0.83705800    0.42438200
Se    9.54692000    8.75740000    9.59195000      0.451839    0.12315100    0.34942200
Se   13.24636000   13.72303000    2.27259000     -1.058652   -0.04678400   -0.60952800
Se   11.73291000   10.57478000    8.56306000      0.744536   -0.06367100   -0.22435200
Se   14.19768000   16.76295000    2.13429000     -0.113335   -0.22050800   -0.03759200
Se   12.77883000   18.37785000   10.90261000      0.356529   -1.40073100   -0.02395200
Se   19.26934000    2.87499000    2.27204000      1.475859   -0.36407100    0.32477800
Se   16.02777000    2.36767000   12.34226000     -0.820827   -0.33838100   -0.20900600
Se   16.18881000    7.84991000   17.22876000     -0.452749    0.29089300    0.76345600
Se   18.25038000    5.75347000   12.41659000     -0.380853    1.44907000    0.28167200
Se   18.73335000    9.35795000    0.43354000      0.423193    0.48422000   -0.13862300
Se   17.41866000   13.76051000    6.24987000      0.016628   -0.47476700    0.39348400
Se   20.33474000   18.88362000   18.47041000     -0.047286   -0.93333900    0.22425900
Se   16.53282000   18.14226000    9.44599000      0.477368   -0.44083700   -1.21128500
Se    1.99979000    3.17432000    1.22202000     -0.261383    0.17813400    0.01440100
Se    5.90317000    6.57783000   11.07448000     -0.138425    0.17670600   -0.15653500
Se    5.30914000   10.80863000    2.01693000     -1.315071    0.35649100    0.18809200
Se    5.29015000   12.36763000    9.93091000      0.006635    0.16168100    0.10624700
Se    2.44667000   15.28259000    2.38568000     -0.389647   -0.54917600   -0.00721100
Se    2.36053000   13.47719000   13.11697000     -0.906884   -0.90701200   -0.34908300
Se    2.60581000   21.87406000    0.58878000      1.362236   -0.69827300   -1.17349400
Se    6.44765000   20.72493000    9.72710000     -0.911475   -0.03479900    0.69076400
Se   12.48476000    5.00567000    1.56531000      0.672640    1.43112600   -0.83968100
Se    5.73814000    4.48292000    8.31417000     -0.675293   -0.19447100   -0.49447600
Se   12.08537000   10.53375000    1.14695000     -0.950358    0.55505900    0.61237100
Se    7.51150000   11.65739000   11.16719000      0.499954    0.25267600   -0.20555200
Se    9.71027000   15.54231000    1.88589000      1.013827   -0.20010700    0.04616300
Se   12.80707000   13.15372000   11.73623000     -0.470319   -0.88133800   -0.44449600
Se    9.27837000   21.37866000   17.92781000     -0.180664   -0.70008000    0.30141400
Se    8.86053000   22.03665000   12.23090000     -1.280466   -0.02369900    1.56675700
Se   15.59323000    4.67772000    0.35606000      0.252324   -0.56631800   -0.46892000
Se   16.51408000    6.99349000    8.73313000      0.048449    0.47784000    0.59049600
Se   15.62553000   10.46438000   18.13145000     -0.434296    0.50753800   -0.11879500
Se   14.44851000   10.24327000   12.79558000     -0.439836    1.01749000    0.09564300
Se   17.32409000   14.15458000    2.86412000      0.445514   -0.61385500    0.10583900
Se   15.02750000   12.88197000   10.84907000     -0.105903    0.36566300   -0.33549100
Se   17.88092000   21.70069000    1.20487000      0.079562    0.84764600   -0.55916500
Se   14.66345000   20.99548000    8.67616000      0.331756   -0.43963700    0.12671700
Se   21.25104000    5.25226000    0.41823000      0.638216   -0.41354200   -0.43742600
Se   21.57707000    4.17510000   11.76202000     -1.649762   -0.43041600    0.67456400
Se   20.03898000    6.84363000    1.87001000      0.478838   -0.38276600    0.55773500
Se   20.33097000   11.22624000   10.06980000      0.190729   -0.69294200    0.69115400
Se   19.57384000   15.27531000    0.37057000     -0.715685   -0.55674700    0.00210100
Se   20.54363000   15.68008000   12.68991000     -0.302351    1.25170300   -0.26805600
Se   20.67815000   21.89846000    3.81180000      0.125864    0.72096100   -0.69540400
Se   17.20837000   21.02619000   11.61959000      0.644984   -0.63091800    0.06391500
Se    2.81011000    3.72969000    8.49307000     -0.567513   -0.07317000   -1.06758500
Se    0.47677000    3.64849000   16.91676000      0.455905   -0.37071400   -0.25884600
Se    3.58075000    8.86478000    8.73765000     -0.192306    0.86224000   -0.14200400
Se    0.98117000    9.58998000   17.22553000      0.945697   -0.36088100   -0.43498500
Se    3.91196000   18.01383000    8.29716000      1.059442    0.17417900    0.58329300
Se    0.17585000   17.77667000   15.17106000      0.667536   -0.88688900    0.41840800
Se    2.11340000   20.57736000   12.58898000      2.010282   -0.41717700   -1.15510800
Se    1.39231000   20.80999000   17.62145000     -0.125833    0.05924200   -0.56457800
Se    5.54560000    4.00006000    5.02561000      0.573839    0.16399700    0.13793100
Se    5.62029000    4.70634000    0.29336000     -0.223137    0.57771500    0.77729800
Se    6.27066000   10.17060000    6.32415000     -0.902620   -0.04405300   -0.05733500
Se    4.30615000    7.67853000   16.59836000      0.703177   -0.36646000   -0.22764400
Se    6.27645000   16.19289000   10.51889000      0.079185   -0.34688600   -0.21825600
Se    6.79623000   15.80901000   17.89631000     -0.775291   -0.06134500    0.65513700
Se   10.47021000   17.95848000    6.45745000     -0.936147   -0.08387300    0.27765000
Se    6.23223000   20.71368000    0.34085000      0.144475   -0.26267300   -0.55860400
Se   10.45210000    2.38974000    9.79433000      0.425491   -0.30773900    0.37565100
Se   12.90363000    3.98894000   16.77939000      0.442434   -0.49233200    0.89745700
Se   13.63095000    8.12170000    6.69589000      0.542778   -0.21181800    1.03318300
Se   12.74269000   10.16073000   16.12937000      0.752840   -0.62389600    0.42349100
Se   12.08193000   15.31168000    8.23069000      0.936541   -0.86367200   -0.91499200
Se   14.66616000   14.57695000   17.29399000     -0.502774    0.96101800   -0.64260200
Se   12.47102000    0.24124000    7.05830000      0.633404   -1.12128100    1.77957800
Se   15.38831000   20.18307000   17.25076000     -0.390780   -1.07224800   -1.09325400
Se   13.88658000    4.33443000    9.34537000     -0.446960   -0.22363500    0.75826300
Se   20.22426000    1.82930000   15.27528000     -0.127325    0.39271000    0.36117500
Se   18.82394000    8.97860000   10.03988000      0.205938    0.56385800    1.57913200
Se   17.36592000   10.96328000   15.59584000      0.948822   -0.97305200   -1.57717300
Se   15.54835000   16.32916000    6.77219000     -0.087154    0.36494600    0.70245300
Se   19.43872000   13.65612000   15.90969000      0.779626   -0.79682900    0.11784300
Se   18.53238000   20.26813000    7.90196000      0.523146    0.02559800    0.50145800
Se   18.61458000   18.47455000    2.68452000     -0.110661    0.42784100    0.25163600
Se    4.62099000    0.58032000    7.42476000      0.679815    0.95039900    0.28752500
Se    4.25091000    3.46353000   17.40911000      0.206088    0.31030100   -0.48269900
Se    7.77364000    7.64219000    8.66045000     -0.699364    0.56526800   -0.81489100
Se    4.83714000    8.53750000   18.80825000     -0.135998    1.11706000   -0.29647000
Se    6.27963000   16.19530000    5.85422000     -0.093692   -0.26096300    0.14300700
Se    5.30035000   11.95419000   17.30171000     -0.802491    0.70690600   -0.56343400
Se    1.80792000   21.00721000   10.17373000      0.528257   -1.16016800   -0.18846900
Se    0.39281000   19.52128000    1.80654000     -0.407663   -0.21492300   -0.09838200
Se    8.95468000   21.83323000    8.50960000     -0.795415    0.22697500    0.01516000
Se    9.99618000    3.12923000    1.26012000      0.065013   -0.39671700    0.58060400
Se   10.43286000    5.25550000    8.60181000     -0.052050    0.91525900    0.58972800
Se    8.91206000    5.65440000   17.72693000      0.606192    0.51208400    0.11489500
Se    9.18641000   12.08554000    6.08782000     -0.171610    0.30371300    0.31866500
Se    8.05022000   13.73970000   17.62125000      0.543296    0.00014800    0.16316900
Se   11.87971000   20.99008000   10.28878000     -0.073282    0.65077800   -0.12912100
Se   11.72364000   14.25566000   17.77673000     -0.686515   -0.61181100   -0.68066700
Se   15.56789000    1.87991000    7.37042000     -0.038217   -1.73115800   -1.68303600
Se   16.59541000    2.81026000   18.15963000     -0.040761    0.69918100    0.22966700
Se   15.73477000    5.23907000    6.80518000     -0.261127   -0.63131200    0.07456900
Se   15.57044000    7.74638000   14.95914000      0.006629   -0.52142200   -0.00798300
Se   15.52263000   10.80204000    8.61999000      0.082615    0.18735900    0.59502700
Se   14.61974000   13.08776000    0.16701000      0.000985   -1.29583200    0.37277000
Se   14.11184000   18.78439000    5.64019000     -1.206575   -0.16377400    0.19212100
Se   17.11857000   17.37405000   18.72384000     -0.416515    0.29879200    0.67357000
Se   20.61972000    0.60303000    7.96996000      0.557529    0.32262000    0.02218500
Se    0.76536000    0.37673000   13.02522000     -0.516103    1.01535500    0.48354500
Se   20.83537000    7.42864000    9.20566000     -0.159708   -0.59583700   -1.61982600
Se   20.28933000    7.75322000   16.52928000      0.500049   -0.16636500   -0.43808300
Se   22.03097000   10.39793000    7.10503000      0.409289   -0.33716500   -0.06825700
Se   21.15628000   11.61185000   17.81280000     -0.878509   -0.60695900   -1.46094900
Se   19.42826000   16.66330000    7.77731000     -0.352363    0.07617500    0.13429300
Se   19.65683000   17.38959000   15.89307000     -0.884807    0.49551600   -0.96663600
Se    3.76347000    1.72731000   11.35337000      0.148353   -0.17105700    0.29577500
Se    2.87479000    0.56980000   14.85242000     -0.536524    0.87902700    0.18665000
Se   22.22461000    6.43601000    7.14903000      1.097295   -0.29995000    0.55016800
Se    1.32264000    9.61161000   14.28990000     -0.618745    0.90056600   -0.06236400
Se    3.03099000   14.67845000    7.14274000     -0.110731    0.96061700   -0.10317100
Se    1.78520000   13.76154000   16.82277000     -0.259337    0.48237600   -0.07541000
Se    0.42009000   17.35316000    9.39451000     -0.625547   -0.59100200   -0.31104400
Se    1.97728000   19.92878000   15.25121000      0.251347    0.06046000    0.26649100
Se    6.58986000    0.05627000    3.45169000      0.055029    1.03344800   -0.10327200
Se    8.50869000   21.91874000    1.36567000     -0.719460    1.23635100    0.52840600
Se   10.20034000    8.88938000    6.54258000     -0.171314   -0.17605300    0.41387800
Se    4.63639000    6.07168000   14.43881000     -0.153848   -0.69066900   -0.33590000
Se    5.68998000   12.54612000    4.62625000      0.258724   -0.11881200   -0.10157800
Se   10.03046000   14.11748000   13.81284000      0.055286   -0.68632900    0.75202900
Se    7.52298000   17.52868000    3.61269000     -0.285338    0.19821800    0.44233000
Se    7.19239000   16.43370000   14.87751000      0.754134    0.39590100   -0.13408200
Se   13.22653000    0.07276000    3.89491000      0.973886    0.80748300   -0.99646600
Se   13.65394000   22.32925000   16.31917000      0.131572   -0.38791000    0.56505400
Se   11.45398000    9.74555000    4.69435000      0.507129   -0.15051800   -0.27571300
Se   11.11921000    6.84251000   15.19664000      0.663616   -1.04014300   -1.09085900
Se   12.77278000   12.57513000    5.30252000     -0.492468    1.60160900   -0.32737900
Se   13.71998000   13.45772000   13.93156000      0.538408    0.35624800    1.13327700
Se   12.35146000   19.09761000    7.35711000      1.214821    0.24803400    0.16778700
Se   12.00805000   18.58068000    0.36517000      0.332920   -0.49304700   -0.62256500
Se   21.06950000    1.79253000    5.46985000     -0.343421   -0.44507100   -0.30544500
Se   17.86475000    0.29240000   16.54726000     -0.710180    1.39428200    0.24130700
Se   19.23219000    5.10718000    6.26338000      0.082786   -0.27737300    0.47516200
Se   18.44137000    5.46634000   15.72035000     -0.084478   -0.59209300   -0.08182600
Se   19.51881000   11.40735000    5.01139000      0.509098   -0.12190700    0.00610000
Se   17.45807000   13.17806000   11.85171000      0.425303   -0.45852500    0.53078200
Se   18.01393000   17.23243000    4.60376000      0.246469    0.13415200    0.35999700
Se   17.89802000   19.76819000   14.73181000     -0.443468    0.69216100   -0.51820100
Se    3.08874000    6.50053000    5.73303000      0.040264    0.17819100   -0.08173100
Se    1.12271000    7.48591000   13.35482000      0.993734   -0.54450200    0.59688600
Se    2.56002000   11.03940000    5.43749000      0.128927   -0.41867200   -0.21557600
Se    4.44712000   10.65674000   14.34110000      0.186578   -0.00248900   -0.11353300
Se    6.09347000   13.72172000    7.09761000      0.683995    0.16581500   -0.31734700
Se    3.49835000   17.76459000   17.54840000      0.129686   -0.23268800    0.93588500
Se    0.94675000   19.67937000    7.18110000      0.593419   -0.12119100   -0.31091000
Se    4.86387000   22.52468000   16.03410000      0.817450   -0.59578800   -0.28217100
Se    9.40028000    1.12597000    5.51755000     -0.264989    0.24923900   -0.62873200
Se    8.03776000    2.86224000   17.98205000     -0.027963   -0.07281500   -0.59564000
Se   11.57927000   12.76725000    9.33252000     -0.265784   -0.34730300   -0.28546700
Se    9.57528000   11.21495000   17.06527000     -0.319852    0.55020500    0.80571200
Se    8.57872000   14.32266000    8.80627000      0.500730    0.25511400   -2.73084500
Se   11.08474000   17.77271000   14.65791000      0.015032   -0.63203300   -0.28265700
Se   11.70185000   19.85420000    3.92254000      0.194613    0.73720800   -0.17861600
Se    8.99359000   17.88480000   17.53948000      0.771919   -0.22020500    0.65164900
Se   12.20314000    3.36992000    6.58508000      1.296070    1.10110400    0.06511600
Se   17.59446000    3.18279000   15.75526000     -0.492621    0.68120800    0.29790500
Se   15.99808000    8.44111000    6.01693000      0.462315    0.73880300   -0.12970600
Se   16.53051000    9.35277000   12.28405000      0.703574   -0.65745900   -0.40702900
Se   16.42012000   11.56284000    5.68332000      0.184584    0.31810700    0.30729200
Se   15.22825000   16.90047000   15.04403000      0.408389   -0.36291900    1.63473400
Se   17.27595000    2.96332000    3.36437000     -1.535165   -0.31411100    1.07396900
Se   18.12849000    3.32306000   12.10399000      0.962145   -0.10381900    0.59239100
Se    1.72701000    2.57051000    6.46334000      0.146802    0.49189400    1.23781600
Se    1.03217000    4.54864000   14.73105000     -1.010285    0.02407100    0.79347600
Se   19.13217000   12.60214000    8.08892000      0.050381    0.26223000    0.42383800
Se   20.89328000   12.07669000   14.12288000      0.385270   -1.07599200   -0.37613700
Se   21.47913000   13.50119000    7.28168000     -0.685023    0.20395900   -0.19556200
Se   20.15830000   18.34142000   12.78060000      0.211235   -0.38390700   -0.05141400
Se   20.20217000   18.92687000    9.14535000     -0.394938    0.52745500   -0.26698200
Se   20.85822000   20.77052000   15.91858000     -0.405605   -0.59099000   -0.66426800
Se    3.20830000    1.28976000    4.09102000      0.211560    0.55830500    0.72087800
Se    6.70215000    3.02566000   16.03340000     -0.257890   -0.16737600    0.13103300
Se    1.55656000    6.12215000    0.28479000      0.395435    0.85141100    0.30838800
Se    5.53376000    8.94439000   12.78747000      0.181714    0.50344300    0.25742500
Se    2.24021000   12.68086000    2.23628000      0.056036    0.62312800    0.09840600
Se    4.83858000   15.14848000   15.06863000     -0.262945   -0.45235300    0.51893700
Se    4.01270000   18.18283000    2.42674000     -0.489505   -0.18450000    0.32858200
Se    4.54968000   18.25824000   12.42095000      0.319631    0.35430700    0.37944000
Se   10.52908000    0.82798000    1.97928000     -0.345630    0.03083000   -0.10892800
Se   10.19516000    0.24870000   16.26009000      0.729597    1.18468100   -0.08935000
Se    9.64527000    7.49049000    2.75439000      0.589984    0.21548400   -0.04691900
Se    7.74183000    8.88223000   15.88979000     -0.175818    0.53053100   -1.06106200
Se   10.64121000   11.84762000    3.10266000      0.288656   -0.42573300   -0.45254100
Se   10.33711000   11.35316000   11.64945000     -0.173573   -0.12213000   -0.17550500
Se   10.41734000   19.25991000    2.01905000     -1.155179    0.27012600    0.17313200
Se   14.83442000   18.59452000   13.60038000      0.172313    0.93802000   -0.58563100
Se   15.31580000    3.30581000    5.37307000     -0.219829    0.08017400    0.46623200
Se   13.80575000    1.62750000   15.02678000     -0.069205    0.66966300   -0.42481200
Se   15.19840000    6.20384000    3.31952000     -0.223838    0.24320800   -0.12435600
Se   12.86578000    7.35887000   11.60772000      0.254922    0.29146500   -0.78653800
Se   16.05895000   10.96676000    2.66288000      0.042645   -0.94075600   -0.35374800
Se   17.23562000   14.40343000   16.51223000     -1.119147    0.06541100    0.53595900
Se   14.98569000   15.58909000    4.43581000      0.634119    0.35971000   -0.21117000
Se   14.33667000    0.01795000   12.53987000     -0.181591   -0.83787600   -0.38144900
Se    2.36251000   21.20956000    5.70266000     -2.279884   -0.40167900    0.19694000
Se   19.47158000    1.20449000   12.89409000      0.491104   -1.02930300    0.09949200
Se   22.43659000    7.21552000    3.84362000     -0.138889   -0.00900300    0.21700600
Se   19.90267000    8.74877000   13.96223000     -0.619599   -0.86218200    0.29610600
Se    1.36701000   13.84322000    5.84511000     -0.890427   -1.10453200   -0.51628000
Se    0.02228000   15.11627000   15.26138000      0.191549    0.28686100   -0.02117000
Se   21.58333000   16.64530000    5.51245000      0.116683    0.90247900   -0.05089900
Se   21.20365000   20.86976000   10.94339000     -0.166016    0.18099500   -0.15301200
Se    1.91545000    4.74593000    3.49918000     -0.286481   -0.07451200   -0.24598200
Se    3.00865000    5.22449000   11.84694000     -0.545352    0.13444000   -0.27712500
Se   21.78374000   10.67035000    4.11997000     -0.831961    0.29916300   -0.29270200
Se    1.35859000   10.88072000   11.91528000      0.193627   -0.79611400    0.21118600
Se   22.49127000   15.83435000   18.65428000      0.312083    0.55782700    0.12436400
Se    3.63280000   15.29778000   12.60985000      1.257622    1.04127900   -0.48858500
Se    1.86977000    0.63449000    2.25395000     -1.081834    0.94884200    0.73256500
Se    4.72190000   20.45753000   14.50282000      0.692552   -0.06298900    0.37156500
Se    9.81305000    5.32122000    4.82570000     -0.013993   -1.09296300   -0.46843800
Se    8.30636000    2.39371000   14.14070000      0.192166    0.08878600   -0.06757300
Se    6.87432000    7.17834000    5.31863000     -0.255898   -1.09044100    0.52445600
Se    7.91740000   12.63393000   14.60869000      0.012929    0.25859600   -0.17338300
Se    5.96089000   15.19147000    1.55431000     -0.000358   -0.67247100    0.05808000
Se   11.22527000   15.58299000   11.15765000     -1.100018   -0.02659900    0.02676000
Se    7.70775000   20.07799000    6.17530000     -0.428755    0.25381600   -1.13745200
Se    7.68572000   20.55509000   15.16993000     -0.200226   -0.63080300   -0.29969600
Se   14.78520000    1.76997000    2.72611000     -0.389760   -0.70897500   -0.04580000
Se   10.90923000    4.57590000   11.98399000      0.002133    0.17470100    0.20998600
Se   13.77470000    8.32326000    3.41780000      0.754310   -0.72403100   -0.20068300
Se   10.63780000   10.44999000   13.86374000      1.272888    0.14937600    0.20774500
Se    9.28508000   14.18529000    4.98860000      0.294611    0.01975700   -0.28306900
Se   15.03612000   15.55607000   10.89751000      0.213286   -0.36297100   -0.08897600
Se   15.00395000   20.00445000    2.07285000     -1.270954   -0.19036600   -0.08188100
Se   13.27802000   20.82090000   13.83989000      0.053987   -0.04956300   -0.35455600
Se   17.77582000    5.75313000    1.29905000     -0.363827   -0.40867400   -0.59033100
Se   14.52354000    4.83307000   13.32222000     -0.953749   -0.37088200   -0.24704700
Se   18.47569000    8.27094000    3.49683000      0.092338    0.53431400   -0.09165400
Se   21.27775000   13.35983000   12.18038000     -0.445952   -0.72886200   -0.12513700
Se   21.11575000   14.25527000    3.37104000      0.692194   -0.11832600   -0.76507600
Se   16.96735000   16.71888000   12.33927000      0.617178   -0.10307900   -0.56312500
Se   16.96609000   20.87843000    5.17544000     -0.606579    0.97492900    4.58176200
Se   16.34152000    1.10278000   10.07907000     -0.144974    0.42750400   -0.01592900
