384
22.54784000 22.54784000 18.93360000
Ge    5.92681000    4.35958000    9.40644000      1.176348    0.07380400    0.36100900
Ge    4.82018000    7.58208000    2.93904000     -2.550544    0.60962800   -0.08119800
Ge    2.66088000   12.17672000    6.91872000     -0.107065    0.20088700    0.79086700
Ge    6.82432000    8.88549000   16.96853000      0.271337    0.45772300   -0.59210300
Ge    3.96371000   13.53058000   10.03555000     -0.589316    0.87513200    0.34700900
Ge    8.85566000   17.23511000    0.53039000     -0.509959    0.77960300   -1.05509800
Ge    6.42501000   18.12759000    7.89505000     -0.144462    0.19676500    0.34865100
Ge    4.66066000    2.68292000   16.05589000      0.052908   -0.19482000   -0.82728800
Ge    9.63704000    7.23249000    8.88962000     -0.834355   -0.33623800   -0.06239600
Ge   11.34247000    5.78947000    0.58594000      0.007443    0.34838100    1.15056100
Ge   12.06316000    8.21918000    8.73084000      1.289127    0.65856800    0.76953600
Ge    9.52891000   12.06170000    0.28552000      0.923612   -0.71544000    0.17332100
Ge   11.08790000   16.82466000    9.31316000     -1.200189    0.94157200    0.34655500
Ge   11.95610000   16.01749000    0.27403000      0.392699    0.06096100    0.85782000
Ge    9.78525000   21.75312000   11.20270000      2.008276    0.74533900   -0.60669600
Ge   13.29819000    0.78198000    1.03340000      0.224974   -0.03921000    0.74530600
Ge   18.74262000    5.46819000    9.71871000      0.243812   -0.30069000    0.52736800
Ge   17.35995000    7.43836000   18.13718000      2.100357    0.28063300   -0.76814800
Ge   17.66883000   14.53036000   11.15661000     -0.981200   -0.81066900    0.54468300
Ge   17.34925000   10.94955000   18.13774000     -0.154424    0.78711900   -0.33134400
Ge   12.58017000   14.78388000    8.50536000      1.745409   -1.06053200   -0.98199000
Ge   17.22765000   15.77194000   18.44373000      0.314605   -0.06802700    0.37428800
Ge   15.66520000    3.71241000   10.93553000     -0.304652   -0.20018900    0.72601400
Ge   18.25920000    2.51256000   18.48686000      0.824679   -0.77648600    0.92449800
Ge    1.19048000    6.01141000    9.61825000      0.036956    0.12060800   -0.07849300
Ge   20.19725000    3.50701000    4.89649000      0.442804   -0.19063800    0.27328400
Ge   22.39817000   10.36134000    9.24931000     -0.086407    0.73841800    0.78063900
Ge   20.44425000    9.04813000    0.27485000     -0.496603   -0.04966400    0.57798300
Ge   20.17560000   14.73590000    7.36279000     -0.018944    0.30343000   -0.01766400
Ge    4.92933000   14.86768000   17.05592000      0.981458    0.35717100   -0.03503900
Ge   17.97884000   22.46593000    8.13818000     -0.104709    0.79857500    0.12788400
Ge    0.12671000   19.63136000    3.70893000      1.214538    1.36952800    0.34904700
Ge    3.38390000    7.87319000    7.39015000     -0.326863    0.75719100    0.29164700
Ge    1.88491000    7.61136000   18.71594000     -0.654790   -0.57397100    0.43932000
Ge   20.77712000   10.78272000    3.99721000     -0.222376   -0.66949900   -1.32417200
Ge    4.62943000   12.55398000   14.31268000      0.332557    1.53361000   -0.14865100
Ge    4.05618000   16.20847000    5.10759000     -0.311315   -0.45560200   -0.35698000
Ge    1.13093000   19.90203000    0.42583000     -0.501879   -0.05002100   -0.29764900
Ge    2.81172000   17.94950000   10.24808000      0.212490    0.20217200   -0.26339800
Ge    1.24288000    1.59401000   17.92011000     -0.634383    0.05325100   -0.63260800
Ge    9.99929000    2.79557000    7.90999000     -0.166932   -0.20678500    2.54428500
Ge    6.75344000    5.62068000   16.55669000     -0.016241   -0.06158700   -0.75538600
Ge    8.59624000    8.17846000    4.99129000     -0.193394    0.67573900   -0.86192500
Ge   10.88001000    6.66363000   16.49961000      0.186685    1.28910600   -1.19525400
Ge    6.60708000   15.99889000    9.81361000      0.266817    0.46164100    0.23288000
Ge   10.57019000   14.98730000   17.05519000     -0.437671   -0.09738300   -1.10356300
Ge   10.11120000   21.77858000    6.80432000      0.658314    0.32930700   -0.18929100
Ge   10.67120000    1.30909000   13.72138000      0.424599   -0.25362200    0.34262600
Ge   12.41701000    7.80989000    6.15759000     -0.058260    0.66781500   -0.87143400
Ge   15.17259000    3.13509000   17.27148000     -1.255458   -0.17083800   -1.00331000
Ge   15.65239000    9.32637000    6.26940000      0.502656   -0.45492200   -0.16768000
Ge   15.04570000   12.80256000   15.79905000     -1.288935    0.16986200    0.07718900
Ge   12.09051000   13.82473000    5.23978000     -0.389712   -0.03034500   -0.12825200
Ge   15.73123000   20.15717000   18.15117000     -0.913616   -0.45174600    0.30081900
Ge   14.56670000   20.79907000    8.67577000     -0.328921    0.14310600   -0.44339200
Ge   18.00171000   22.20434000   13.67372000      0.158741   -0.18416000   -0.46475000
Ge   22.09013000    3.84570000    8.54220000      0.110516    0.02473900   -0.23400700
Ge   20.30980000    5.30962000   13.80854000     -1.114489    1.00006700    0.60461000
Ge   18.85273000   11.09633000    7.14992000     -0.450086   -0.68721200    0.91454400
Ge   22.49107000   14.90260000   16.20750000     -1.213055   -0.19163000    1.19626500
Ge   17.99764000   16.34619000    5.81710000     -0.183745   -0.19449900   -0.33722500
Ge   16.33422000   18.11432000   15.27851000     -0.658369    0.28007900    0.07711400
Ge   22.10820000    0.32606000    6.21347000     -0.773633    0.91183300    0.34092400
Ge   18.84480000   22.00022000   17.55986000      0.907159   -0.11319000   -0.60222400
Ge    7.17455000    0.97514000    7.54119000     -0.246540    0.25803300    0.14125900
Ge    3.41213000    2.61332000   12.49488000     -0.344529   -0.86258100    0.21197900
Ge   22.32557000   10.05844000    5.72431000      0.495685   -0.71381200    0.78322400
Ge    2.97240000    7.70944000   11.20671000      0.125938   -0.86792100    0.09656100
Ge    0.00653000   15.72446000    4.08080000     -0.119617    0.10615900    0.49980200
Ge    2.72975000   18.01251000   14.96324000      2.442555    0.28003500   -0.38379900
Ge    4.67970000   21.36022000    9.37743000     -0.253015    0.18252300    0.19097600
Ge    9.12683000   19.61734000   16.37469000     -0.197711    0.69608800   -0.56144400
Ge    5.38534000    4.44935000    2.56240000      1.176634   -0.37762500    0.13859100
Ge    9.38864000    3.03724000   17.26812000     -0.209890   -0.44751200   -0.47120500
Ge    6.88749000    6.19875000    5.17003000      0.184779   -1.48461200    0.32397000
Ge    8.70551000    9.71630000   13.88066000     -0.001216   -0.16528500    0.04506300
Ge    5.41507000   14.57841000    3.41322000     -0.298718   -0.00261700    0.13959000
Ge   11.19570000   11.97352000   15.51228000     -0.424037   -0.61228500    0.54669600
Ge    8.02406000   21.71753000    3.87503000      0.117272   -2.71821200    0.04825100
Ge    9.38114000   16.01234000   12.76006000      0.125469    1.04892700    0.14646600
Ge   12.36712000    2.39863000    5.23220000     -0.961734   -1.69641700   -0.59402400
Ge   13.05073000    4.49926000   15.07987000      0.605300   -0.76184700   -0.64137000
Ge   17.80458000    3.59765000    6.69342000      0.576469   -0.05629700   -1.29810800
Ge   15.01797000    9.95762000   14.61708000     -0.385067   -1.22114200    0.28736200
Ge   14.56512000   13.71778000    3.19343000      0.181184    0.42072400    0.55265800
Ge   13.45238000   15.85405000   11.83099000      0.171242    0.15815300    0.21049500
Ge   10.06704000   18.24280000    4.58308000     -0.225084    0.33592900    0.08132100
Ge   12.36636000   20.08581000   15.77891000      1.084422    0.34701800    0.57481600
Ge    0.75470000    6.05843000    6.12542000      0.017843   -0.00613700   -0.90844600
Ge   22.10424000    3.91143000   12.27662000     -0.079046    0.51354600   -0.07188300
Ge   20.22705000    8.39969000    7.78184000     -0.459028   -0.25717600   -0.38938900
Ge   17.41077000   10.88283000   11.91081000     -0.521163   -0.26496700    0.25391000
Ge   20.87413000   17.02787000    0.42791000     -0.737832   -0.62894400   -0.07800500
Ge   19.31820000   15.54344000   14.03084000      0.241850    0.04252800   -1.26081200
Ge   18.87803000   20.86700000    5.08590000     -0.914693    0.38469000   -1.06595100
Ge   21.64971000   20.57824000   12.73776000      0.011505   -0.35078400    0.97357200
Ge    3.30027000    1.56889000    3.06499000     -0.201350   -0.41943000   -0.51959600
Ge    5.42265000    1.09861000   11.96476000      0.459616   -0.29923600   -0.53727500
Ge    5.64166000    9.57110000    4.12736000     -0.754404    0.22879800    0.53994300
Ge    7.12020000    4.94185000   13.27594000     -0.697516   -0.13248800   -0.30382500
Ge    5.63916000   11.87806000    0.66168000     -1.782394    1.79420400    0.99315900
Ge    4.11247000   10.32227000   12.18838000      0.637349   -1.02949700    0.12406200
Ge    3.14255000    0.55821000    8.08039000      0.117873    0.39684600   -0.31323100
Ge    7.40362000   19.28433000   12.96319000     -0.090065   -0.51485300   -0.27864300
Ge    9.34952000    3.72017000    2.02145000     -0.783451   -0.29771500    0.51888000
Ge    9.85023000    4.82883000   11.85056000      0.097245   -0.20011100   -0.93947200
Ge   11.76066000    9.16564000    1.78449000     -0.173381    0.10376100    1.10041400
Ge   11.38457000    8.02793000   12.08493000      1.682427    0.61007000    0.75050900
Ge    9.02235000   13.33882000    2.63931000      0.160213    0.90686200   -0.87912800
Ge    8.08073000   12.99895000   10.79567000     -0.657182    0.29082700   -0.28929200
Ge   11.33602000   21.40026000    1.83391000     -0.363844   -0.20639300   -0.34022000
Ge   11.78540000   19.34079000   12.27939000      0.255628   -1.48131100    1.11495600
Ge   22.06224000   21.93185000   16.84243000      0.061368   -0.11343600   -0.54030400
Ge   13.46746000    0.91920000    9.37691000      0.321948    0.23961700    0.04134400
Ge   16.11330000    6.57006000    2.12214000      0.058522    0.25505400    0.47249400
Ge   15.72933000    6.48441000   11.08832000     -0.227725    0.23517400    1.93622300
Ge   17.79097000   12.34980000    1.67549000      0.253542    0.25687000   -0.45479400
Ge   15.44231000   15.96737000    7.30072000      0.364478    0.29384500    1.24044500
Ge   16.81929000   21.32680000    2.30977000      0.012713   -0.27633500   -0.02421500
Ge   16.17147000   20.08184000   11.23292000     -1.099623    0.36473000   -0.22091000
Ge   20.09820000    1.29014000    2.85237000     -1.007587    0.14941800    0.65464800
Ge    0.43166000    1.00829000   11.06672000      0.057529   -0.15197400   -0.14519200
Ge   21.81133000    7.62256000    2.25642000      0.617638   -0.53096700   -1.03799500
Ge    0.08571000    8.81016000   13.65622000     -0.618275    0.51091800    0.52822900
Ge   20.80695000   12.60592000   18.62688000     -0.713602    1.31040900   -0.36742900
Ge   22.32733000   15.13154000    9.25482000      0.313986   -0.07357000    0.50192100
Ge    3.80091000   21.12191000    4.90622000      0.180138   -0.23661000    0.17065500
Ge   19.48451000   18.49232000   11.14002000     -0.025210   -0.59403900    0.32386800
Se   20.58139000   22.44493000    0.88346000     -0.002989   -0.23734700   -0.75204000
Se    0.89352000    1.33307000    8.62096000     -0.428819    0.20165200   -0.09277500
Se    3.98388000   11.25341000    3.23385000      0.096641   -0.49247900    0.27809400
Se    0.42976000    6.43605000   14.05371000      0.577634   -0.09566200   -0.61258900
Se    0.52673000   13.08654000   18.00750000      0.136338    0.12282900   -0.54931600
Se    1.16850000   12.64653000    9.24931000     -0.521119    0.50220400   -0.14560700
Se    1.93257000   17.23548000    4.63994000      0.065023    1.69033900    0.23763800
Se    2.16747000   15.58122000   10.43609000     -0.076640   -0.12095700    0.59012300
Se    4.26098000    1.91793000    0.67719000      0.076357    0.20810100    0.61509400
Se    7.31774000    3.10275000   11.49500000     -0.424464    0.45547700   -0.99556900
Se    6.92280000    6.79005000    2.70800000      2.019952   -1.16328300   -0.96834100
Se    9.20990000    7.40571000   11.49291000     -0.693959   -0.07962700    0.14110200
Se    7.43217000   10.43635000    0.86158000      1.550511   -1.58656900   -0.54704900
Se    6.57557000   11.28721000   13.30227000     -0.472170   -0.11326400   -0.36846100
Se    5.24272000   20.30595000    2.21673000     -1.105550   -0.01081200    0.87667800
Se    9.03570000   18.27482000   10.90742000      0.226976   -0.00545000    0.84678700
Se   11.46516000    2.66263000    0.96579000     -0.159255   -1.10052000   -0.46649600
Se   13.45998000    1.83941000   13.93202000     -0.508133    0.63191000   -0.77131000
Se   12.05155000    8.45497000   18.40358000      1.212663   -1.23248400    0.43089300
Se    9.25856000   10.17393000    9.33877000     -0.236700    0.44263200   -0.21108500
Se   12.58325000   15.21947000    2.87286000     -0.283500    0.08491500   -0.10918700
Se   12.26904000   10.53614000    7.43883000     -0.131861    0.16647700    0.17906100
Se   13.88000000   18.84737000    2.12127000     -0.352402   -2.39114300   -1.84916900
Se   13.56300000   17.14344000    9.42830000      0.301226   -0.17303100    0.65711900
Se   19.04714000    3.78151000    2.01719000     -0.712334    0.19723400   -0.63074600
Se   16.82288000    1.99168000   13.04747000      0.302334    0.00832700   -0.31212600
Se   15.09418000    7.43019000   18.62475000     -1.360170    1.44593700   -0.24831300
Se   17.92510000    5.61250000   12.61370000      0.311099   -0.42757300   -0.70030700
Se   17.93736000    9.70687000    1.31552000      0.546486   -1.11591000    0.39122000
Se   16.23556000   14.07629000    5.87834000      0.364898   -0.16902100   -0.17679300
Se   20.68269000   19.73586000    0.55311000      0.144180   -0.21612900    0.15056900
Se   17.01894000   20.15947000    8.61207000     -0.726798   -1.60017400   -0.36188800
Se    0.81523000    0.85439000    2.80454000      0.682651    0.13109900   -0.19819300
Se    6.74144000    7.00314000    9.27289000      0.369879   -0.00364500   -0.81899800
Se    7.56600000   11.14676000    3.12371000     -0.384274   -0.03210800    0.51117300
Se    4.43005000   11.30774000    9.24104000      1.356764   -1.51723400   -0.15314200
Se    4.08136000   14.20265000    1.38314000     -0.252275    0.04614900    0.13015000
Se    2.99563000   12.42413000   12.49955000     -0.509930    1.15419200   -0.42343100
Se    2.63445000   22.34046000    0.04385000      0.112752   -0.17924800   -0.55887100
Se    6.43299000   19.70034000    9.83770000     -0.041907    0.24784500    1.08661900
Se   12.43379000    6.00524000    4.51639000     -0.464774   -0.54362400   -0.18610900
Se    7.76016000    3.97881000    7.66670000     -0.525269   -0.52947900   -0.02425300
Se   11.82082000   11.76871000    1.77012000      0.166962   -0.93141200    0.46534200
Se    6.98798000   10.75226000   10.49568000      0.105541   -0.04806800   -0.53845200
Se    9.97194000   16.02474000    2.22139000      0.549807   -0.46193600    0.38366800
Se   12.83895000   13.24702000   13.99489000     -1.125576    0.92191200   -1.53713300
Se   10.05330000   21.51270000   18.00166000     -0.323526    0.15144700   -0.11104200
Se    7.95760000   21.90087000   12.51278000     -1.455421   -0.07531400    1.29614100
Se   14.95651000    5.24138000    0.30387000     -0.456573   -1.54028100    0.36424100
Se   16.57395000    6.61235000    8.87467000      0.761503    0.25333600   -1.22157300
Se   14.57931000   10.57894000    0.31470000      0.346066    0.46822700   -0.21991600
Se   14.85975000   12.23889000   13.22945000      0.508204    0.06168700   -0.01613500
Se   18.30980000   15.64241000    2.20402000     -1.022646    0.28725200   -0.75419100
Se   16.16714000   11.25494000    9.69336000      0.163562   -1.72265600   -0.04143400
Se   16.75424000   22.38665000   18.86296000     -0.140512   -0.00403400    1.20114400
Se   15.52203000   18.94661000    6.71633000      0.404697    0.69332800    0.68145200
Se   22.53021000    3.05661000    2.22585000     -0.200212    0.04307200    0.22486800
Se   21.32584000    6.05020000   10.67043000      0.519893   -0.74981500    0.41906600
Se   21.22487000    5.02136000    0.34423000      0.370852    1.16712300   -0.24030100
Se   21.10932000   11.15838000   11.93237000      0.397259   -0.49092200    0.06159200
Se   19.66264000   15.04939000   17.12994000     -0.042276    0.26203600    1.12333300
Se   20.77701000   16.20033000   12.11061000     -0.768462    0.15749700    0.00531300
Se   20.98533000   21.84789000    4.14998000     -0.050707   -0.19315400   -0.19131100
Se   18.25947000   21.31289000   10.96217000      0.653675    0.01736700    0.55146500
Se    3.88052000    5.67161000    8.33782000     -0.981578   -0.46913800    0.41903100
Se   21.22659000    2.23023000    0.27678000      0.983384    0.45653400   -0.94032900
Se    2.39725000   10.06173000    8.54600000      0.020362   -0.92145500   -0.41572300
Se    1.03470000    9.74314000   18.22274000     -0.426376    0.87547500   -0.47109100
Se    3.96347000   18.29063000    7.78209000     -0.048994   -0.58243200    0.10583400
Se    0.54877000   17.76768000   15.37664000     -2.489357    0.33966600   -1.00891400
Se    0.46537000   18.36526000   12.58704000     -0.273229    0.43570300    0.35274400
Se    2.00683000   21.16208000   16.85432000     -0.236298   -0.46187000    0.15850500
Se    3.07334000    4.23680000    5.44361000     -0.452126   -0.94101800    2.04838700
Se    5.63134000    6.83246000   18.39399000     -0.435929   -0.27651700    0.14042000
Se    5.48723000    8.61505000    6.57944000      1.226570    0.93587300   -0.05273400
Se    3.62291000    7.40335000   17.10159000      0.692925   -0.15959900   -0.23609600
Se    5.87984000   14.12827000   11.52853000      0.865338    0.09072000   -0.16792200
Se    6.55222000   17.43051000   18.45254000     -0.046422   -1.02986500    0.39657900
Se    8.98414000   19.56550000    7.16451000      0.137126   -0.37390400   -0.89487000
Se    6.88100000   19.56442000   17.72103000     -0.234718    0.53842000   -0.44153200
Se   10.91579000    1.61458000   11.38807000     -0.327383   -0.54590000   -0.96760900
Se   11.82133000    4.56967000   17.29773000      0.951888   -0.74499600    0.16705900
Se   14.12669000    6.75946000    7.51797000     -1.062969    0.70841900    0.15655400
Se   13.63763000   10.95650000   16.61732000      0.029571    0.41692100   -0.55475300
Se   10.56329000   14.97093000    7.09864000      0.159740    0.41324300    0.23467700
Se   14.51571000   16.15521000   18.25534000      0.110736   -0.15186200   -0.20382800
Se   12.56876000    0.23598000    6.91609000     -0.038521    0.30790800   -0.09299400
Se   13.23583000   21.65876000   18.34880000      0.572779   -0.56854700   -0.03539100
Se   13.33089000    3.39602000   10.50933000     -0.182239   -0.11973500   -0.14657500
Se   22.04978000    3.63196000   16.02500000     -0.726437   -0.73971600   -0.21623000
Se   19.14696000   11.22973000   10.07385000      0.477524    0.31506700    0.66275700
Se   16.79686000    9.34473000   16.40178000      0.766651   -0.23287800   -0.42161900
Se   13.69607000   15.84225000    5.65981000     -0.460118    0.59961000   -0.61358100
Se   20.55093000   13.55999000   14.67482000      0.906389   -0.72383000    0.58650400
Se   19.75618000   20.70906000    7.28166000      0.684408   -0.30217800    0.99003300
Se   18.62698000   19.49722000    2.58212000      0.037607    0.14776100   -0.33904600
Se    4.54256000    2.32084000    9.06403000      0.148582   -0.46360400    0.20801800
Se    2.79332000    3.48419000   18.64479000     -0.075855    0.35133600   -0.29830200
Se    9.45892000    9.83628000    6.57204000     -0.071860    0.72841900    1.16724600
Se    4.53432000    9.40745000    1.27330000     -0.396226    0.31090900   -0.49411700
Se    6.44956000   16.63718000    5.77823000      0.454369   -1.07165600    1.05169900
Se    4.94667000   11.63722000   17.42234000     -0.120760   -0.28790600   -0.90204200
Se    0.72541000   20.13891000    9.88698000      0.580131   -0.89167900    0.07984200
Se    1.77220000   17.64314000    1.37113000     -0.200051    0.67845600   -0.30544100
Se    8.86177000   22.12391000    9.03452000     -0.764423    0.67911700   -0.98319900
Se    7.14819000    2.89005000    0.80100000      0.625616    1.12136100    1.19168400
Se   10.88411000    5.08568000    9.31282000     -0.172071   -0.71647100    0.24522500
Se    8.90331000    6.03669000   17.73252000     -1.127745   -0.13398100    0.76370700
Se    8.77175000   12.44595000    6.09527000     -0.242414   -0.16991300   -0.62685500
Se    8.45344000   13.78913000   17.76387000     -1.293767    0.54734500   -0.83184200
Se   11.95657000   20.63854000   10.18593000      0.074041    0.46634600   -0.68846600
Se   11.66380000   13.44053000   18.69977000      1.031066   -0.40175800   -0.06705600
Se   15.33449000    1.16494000    7.40589000     -0.299251   -0.90092700    0.85034000
Se   15.16089000    2.23701000    0.57098000      0.858151    0.26434400    0.85992000
Se   16.62007000    3.71590000    8.70822000      0.028625    0.22707900    0.13747200
Se   13.84741000    7.71322000   15.78636000      0.055362   -0.17064800   -0.59824600
Se   17.17004000    8.94112000    8.64757000     -0.164339    0.08168200   -0.73467000
Se   15.23783000   14.09003000    0.90417000      0.215196    0.52578500   -1.25644700
Se   12.42095000   18.31329000    5.44559000      0.131579   -0.17006700    0.55038100
Se   17.48649000   18.33812000   18.05517000      0.253089   -0.22411500   -0.09331000
Se   20.70800000    2.21405000   10.16012000      0.587862    0.50778600   -0.57927700
Se    0.57843000   21.76276000   14.50139000     -0.671855    0.02111300   -0.59457700
Se   19.59921000    8.68290000   10.13789000      0.476190   -0.83263500    0.23994900
Se   22.51255000    6.34285000   17.65682000      0.343318   -0.19474500    0.41209900
Se   21.05535000   11.92707000    6.88093000     -0.046514    0.00790500    0.72168200
Se   19.82753000   10.62490000   17.46824000      0.039737    0.68376800   -1.58449600
Se   18.90249000   17.00993000    7.95218000      0.311492   -0.43110100   -0.48517300
Se   18.67701000   17.24975000   15.53935000      1.002151   -0.34485100    0.70012500
Se    2.75389000   21.82055000   11.07232000      0.497478   -0.41220400   -0.22508900
Se    2.31533000    2.02941000   14.68846000      0.088730    0.34209100    0.46093300
Se    0.15601000    7.73136000    7.78914000     -0.437073    0.31624000    1.27479800
Se    1.38925000    9.61667000   15.79952000      0.741017    0.30882800    0.04739700
Se    2.82053000   15.40559000    7.13266000      0.871549   -0.37421500    0.30074600
Se    3.17835000   13.38557000   16.16918000     -1.204667   -0.43827800   -0.00314900
Se    0.77154000   16.86647000    7.73019000     -0.089441    0.37145000   -0.75936400
Se    3.26923000   20.32413000   13.86406000      0.821443   -1.02610500    0.60800100
Se    6.54832000    0.62976000    2.90298000     -1.486915    0.53843900   -1.09493900
Se    6.76946000   21.19830000    0.76176000      1.052081    1.01094400   -0.52536400
Se    9.98570000    6.55573000    6.00999000      0.319176   -0.38999600    0.97731100
Se    4.58068000    4.20947000   13.75115000      0.790144    1.21926400    1.21041800
Se    4.29382000   12.78547000    5.15672000      1.217845    0.51757300   -0.77515200
Se    9.69529000   14.42284000   14.74824000      0.410586   -1.15250000    0.42148200
Se    6.90844000   18.01200000    4.10712000      0.038243    0.99995500   -1.62314000
Se    8.03330000   17.23815000   14.78459000      0.007205    0.36785600   -0.78748700
Se   13.78335000    0.46677000    3.51249000     -0.424490    0.33650200   -0.61067900
Se   13.38318000    0.47933000   15.84089000      0.498448   -0.13260000    1.13327900
Se   13.81638000   10.03278000    4.36735000     -0.092087   -0.44801200    0.56156600
Se   11.18753000    5.81986000   14.01183000     -0.109540    0.36924400   -0.24386500
Se   14.22352000   12.19018000    5.63937000     -0.207736   -0.32652200    0.03901500
Se   13.75342000   14.91034000   15.52686000     -0.115501   -0.33818000    0.49410500
Se   11.65464000   19.25231000    7.98677000      0.010307    0.21333100   -0.57833800
Se   11.72055000   18.99850000    0.72071000     -0.145067    0.33378500    0.37170300
Se   19.26018000    1.58397000    6.68997000      0.256028   -0.12529900   -0.33373800
Se   19.72625000    1.46639000   15.90199000     -0.226378   -0.65485800    0.34439700
Se   20.10060000    4.84123000    7.22365000     -0.307383    0.86904200    0.33187400
Se   18.98052000    6.47266000   15.83443000      0.615301    0.13330500   -0.45866600
Se   19.25197000   12.60087000    3.86124000     -0.855274    0.56652800   -0.18520800
Se   17.22882000   14.44325000   13.49996000     -0.261056    0.19599800   -0.16026200
Se   16.77294000   18.20844000    4.52097000     -0.079836   -0.54983500   -0.25430100
Se   16.92205000   20.66104000   15.99828000     -0.164646    0.32824300   -0.31966900
Se    2.14478000    8.29301000    5.36301000     -0.419191   -0.42142100   -0.87519700
Se    2.83599000    6.68427000   13.55480000      0.015357    0.46097300   -0.46897400
Se    0.91627000   12.15823000    4.97552000      1.427687   -1.70069100   -2.08106100
Se    4.32625000   10.31138000   14.92976000     -0.349305   -1.76509500   -0.22453000
Se    5.73348000   14.48652000    7.97368000     -1.314788   -0.09506400   -0.20496800
Se    3.50461000   16.81801000   16.98407000      0.004631    1.17717500    0.47828600
Se    2.55710000   20.76979000    7.25071000     -0.259953   -0.72548100   -0.25294500
Se    5.92452000    0.14188000   14.66934000     -0.152463   -0.32037300    0.25707100
Se    8.81865000    0.92743000    5.14973000      0.820982    1.05291700    1.81451800
Se    7.12138000    1.68219000   17.82254000      0.410868   -0.47395300   -1.32661000
Se   13.15337000   11.89624000    9.23909000     -0.466344   -0.89831800    0.08121100
Se   10.39512000    9.83349000   17.58670000     -1.891679    1.17611100   -0.52928400
Se    8.00332000   14.16418000    8.43758000      1.020546   -0.32524200   -0.10154700
Se   11.63786000   16.83047000   13.75931000      0.012830    0.40715300   -1.13993400
Se   10.94102000   20.63050000    4.17109000     -0.007970   -0.45462300    0.84104200
Se   10.32768000   17.56587000   16.91227000      0.290482   -0.13171300    1.14967800
Se   10.30820000    3.68944000    5.85267000      1.085185    0.69478900   -1.99214100
Se   17.33124000    4.10822000   17.10443000      0.710053    1.27116800   -0.91530000
Se   17.28128000    7.14636000    5.57454000     -0.044882    1.34103300    0.64639700
Se   16.98793000    8.38940000   12.41367000     -0.212957    0.30792900    0.12483300
Se   17.69527000   10.83308000    5.10499000     -1.160608   -0.57404100   -0.24346400
Se   14.01977000   18.25963000   16.45955000      0.456796   -0.68524500    0.24962500
Se   15.91342000    2.67319000    4.44845000     -0.289711   -0.14226900   -0.01566600
Se   19.35868000    2.70992000   12.16926000     -0.929345    0.00948700    0.34947300
Se   22.50461000    2.87807000    5.66657000      0.133498    0.57564100   -0.04985600
Se    1.59456000    4.56728000   15.89766000      0.154208   -0.42781100    0.26958400
Se   18.16101000   13.31018000    7.99207000     -0.216572    0.66175800   -0.65760500
Se   22.36758000   12.93283000   13.16413000     -0.283264   -0.30370300   -0.12343000
Se   19.99513000   15.17210000    4.63750000     -0.734853    0.52307000    1.22028800
Se   19.46488000   19.72178000   13.79360000      0.928842    0.08755000   -0.16946100
Se   21.56984000   17.90233000    9.32436000     -0.084314    0.39549700    0.00321200
Se   20.45113000   19.89576000   16.57759000      0.109730    0.28907400    0.26654900
Se    3.17037000    0.92317000    5.45240000      0.198782   -0.06688600    0.91955200
Se    7.00443000    2.45025000   14.34812000      0.073933    0.53346300    0.62597900
Se    1.90572000    7.37114000    2.17145000      0.008725   -0.13312300    0.12950900
Se    5.70348000    6.87823000   11.30302000     -0.379569    0.04668200    1.17402000
Se    1.50787000   15.10719000    2.38281000      0.168483   -1.65766100   -1.73036600
Se    5.97930000   15.20904000   14.47416000     -0.572778    0.17955000    0.44107800
Se    4.53921000   18.03000000    2.97200000      0.234686   -0.34750200    0.11583700
Se    5.09909000   17.51690000   11.34159000     -0.190596    0.71876900    0.62441900
Se   10.27095000    1.43974000    3.02412000     -0.363163    0.41544700   -0.19356100
Se   10.64233000    0.72651000   16.42334000     -0.437452   -0.22909300    0.44662000
Se    9.63464000    8.04940000    2.58562000      0.373438    0.40901300   -0.29553600
Se    6.96507000    7.81583000   14.60197000     -0.083233   -0.67815700    1.11317500
Se    9.88027000   11.51937000    4.13636000      1.618083   -0.06624300    0.70170400
Se    9.52483000   11.40121000   11.93245000      1.387965   -0.32309800    0.37161700
Se    9.13967000   19.52069000    1.48675000      0.158270    0.26849100   -0.20558300
Se   16.63029000   17.81729000   12.34632000     -0.528805    0.82489100    1.99446000
Se   14.14445000    3.78019000    5.65461000      0.805299    1.11041900    0.79561900
Se   16.05216000    0.44732000   15.76567000     -0.415888    0.44275000    0.32694400
Se   16.79713000    5.32745000    4.32547000     -0.026993   -0.73786600   -0.49307500
Se   13.25998000    9.70312000   10.54425000     -0.543592   -0.39286800    0.07749000
Se   15.42060000   11.33953000    2.37603000      0.452697   -0.40063700    0.70447000
Se   17.14586000   13.24374000   16.28885000      1.589733    0.02257500    1.10687200
Se   15.86811000   16.25657000    2.75380000      1.194626   -0.06897000   -0.17116400
Se   14.61195000   22.19257000   12.31317000      0.079658   -0.80134100    0.24225000
Se    0.11423000   20.52124000    6.57316000      0.862364   -1.05599500   -0.26248900
Se   20.34426000    0.72043000   13.42294000      0.243832    0.46337200    0.25281900
Se   21.11052000    6.75858000    4.38223000      1.135164   -1.72821500    1.04921500
Se   20.05802000    8.06946000   14.24259000     -0.250629   -0.61409500    0.17925900
Se    0.45370000   14.08445000    5.94286000     -0.511321    2.05863200    1.19563400
Se    1.62749000   14.61018000   14.49979000      0.905649   -0.26332300   -0.21657600
Se   21.32011000   17.82783000    4.13680000     -1.660965   -0.60746300    0.05173800
Se   21.38239000   21.44027000   10.26979000     -0.107889    0.18088600    0.48294000
Se    2.89942000    4.00933000    3.21201000     -1.051395   -0.03512200   -1.66603800
Se    1.84320000    3.97291000   11.26450000     -0.096320   -0.17411300   -0.70740700
Se   21.35266000   11.06893000    1.53045000      0.984161   -0.75438700    0.79791100
Se    1.43432000    9.59899000   11.59487000     -0.753569   -0.05008100    0.01086300
Se    0.41986000   17.42733000   18.06516000      0.427157   -0.55597800    0.39113500
Se    3.92872000   16.14823000   13.49821000      0.446259   -0.08371200   -0.66010000
Se    2.12308000   20.87087000    2.65464000     -0.035417   -0.40743700    1.11710100
Se    5.44866000   20.20577000   15.22765000     -0.730435    0.23728800   -1.02674800
Se    6.97331000    3.50133000    4.57266000     -0.554554    0.78698100   -1.10734200
Se    9.48806000    3.45495000   14.39707000     -0.042695   -0.11191400    1.00967200
Se    4.34986000    6.13874000    5.35753000      0.707062    1.05549100   -0.55678500
Se    8.35943000   10.94783000   15.98867000     -0.080697    0.39532000    0.09742800
Se    7.33069000   14.55926000    0.80170000     -0.806885   -0.27444500    0.01273700
Se   11.72736000   14.48333000   10.70544000     -1.161711   -0.22665900    1.10200800
Se    6.90400000   20.77916000    6.20460000     -0.492795   -0.08371900    0.09603600
Se   10.86283000   20.77167000   14.10185000     -1.408912    0.33850500   -0.88465000
Se   12.93308000    4.06682000    2.06589000     -0.310691    0.24671300    0.05775400
Se   13.12690000    6.40432000   11.14454000      0.029226    0.16583000   -0.25910300
Se   13.30551000    7.06396000    2.69310000      0.530755    1.02139100   -0.70071100
Se   11.34177000    9.65005000   14.17759000      0.045261   -0.30256600   -0.12930600
Se    8.35112000   14.58979000    4.53657000     -0.084764    0.01308700    0.69763400
Se   15.73015000   13.43421000   10.11005000     -0.729775    2.40186400    0.55374600
Se   14.62042000   20.18512000    3.62975000      1.120889    1.77752600    1.29223800
Se   14.25952000   20.08633000   13.65784000     -0.717722   -0.11600900   -0.14461800
Se   18.41379000    6.05873000    1.30179000      0.435667    0.12010400   -0.01401800
Se   15.05799000    5.93303000   14.73531000     -0.246993    0.19655600    0.26641300
Se   19.64526000    8.41535000    3.83014000     -1.506358    1.35379700   -0.33814700
Se   19.82760000   13.81002000   10.90259000      0.971949    0.21579200   -0.27173500
Se   21.46380000   14.69387000    1.86220000      0.153916    0.18760200   -0.46000200
Se   17.13183000   16.68739000   10.44641000      0.518306    0.63414900   -2.48396000
Se   17.46805000    0.67176000    3.68573000      1.010841   -0.43007000   -0.05805200
Se   16.36693000    1.24086000   10.74113000     -0.222304    0.56599600    0.33906000
