384
22.54784000 22.54784000 18.93360000
Ge    5.90092000    4.33958000    9.42360000      1.196143    0.76372800   -0.04303000
Ge    4.60670000    7.58888000    3.05548000     -0.232533    0.28021700   -0.60859300
Ge    2.50032000   12.01105000    6.97706000      0.112454    0.85763100   -0.03934700
Ge    6.93958000    8.82767000   16.77696000     -0.027303    0.06553100   -0.11316900
Ge    3.84431000   13.56925000   10.07388000     -0.225859    0.60696200    0.12046000
Ge    8.87281000   17.27660000    0.52428000     -0.399187    0.14947200   -1.08729200
Ge    6.62583000   18.14602000    7.91994000     -0.539715    0.36705000    0.29544000
Ge    4.55693000    2.80878000   15.88872000      0.305677   -0.08650500   -0.04348200
Ge    9.59472000    7.14479000    8.78176000     -1.012395    0.44040200   -0.03470100
Ge   11.35050000    5.95534000    0.66982000      0.040866    0.24711400    0.60546900
Ge   12.02743000    8.35704000    8.97526000      0.940304    0.11027600   -0.04019000
Ge    9.62376000   11.92518000    0.23713000      0.535591    0.33103400   -0.07830200
Ge   11.26640000   16.95684000    9.12037000     -2.465948    0.34221000    0.22776200
Ge   12.17817000   16.29056000    0.26778000     -0.766415   -0.42774200    0.50234100
Ge    9.94789000   21.74573000   11.35791000     -0.254051   -0.11718100   -0.25302900
Ge   13.40344000    0.79691000    1.04491000     -1.841848   -1.41778600    0.37080700
Ge   18.72878000    5.37541000    9.62877000     -0.381525   -0.15910200    0.49641300
Ge   17.54315000    7.35959000   18.31302000     -0.177613    0.73184400   -0.90669700
Ge   17.57538000   14.50717000   11.16009000      0.165913   -0.09311700   -0.05852700
Ge   17.29586000   11.07062000   18.22424000     -0.040336   -0.15425700   -0.74869900
Ge   12.64109000   14.59856000    8.66649000      0.189516   -0.69853400   -0.17517200
Ge   17.07871000   15.69122000   18.30745000      0.720126    0.02059900    0.49784700
Ge   15.63705000    3.49124000   11.11963000     -1.176135    1.96796500    0.06973300
Ge   18.29010000    2.42576000   18.40498000      0.518707    0.20587700    0.36434500
Ge    0.85304000    6.04855000    9.51155000      1.452241   -0.60147600    0.88197800
Ge   20.11299000    3.59426000    4.94036000      0.998925   -0.42192100   -0.29006700
Ge   22.27566000   10.42343000    9.17475000      0.100675    0.69219200    0.77159900
Ge   20.30309000    8.96089000    0.27061000     -0.418334    0.48131800    0.62437900
Ge   20.23171000   14.80100000    7.44158000      0.038974   -0.42380400   -0.36454900
Ge    5.23908000   14.76916000   17.04659000     -0.730542    0.51784900   -0.01892500
Ge   17.84709000   22.37210000    7.93091000      0.363996    0.90264700   -0.09832900
Ge    0.24177000   19.81158000    3.79181000     -0.683356   -0.93056000    1.52499000
Ge    3.36097000    7.87297000    7.39891000      0.571414   -0.12111500    0.32455900
Ge    1.80929000    7.37088000   18.89390000     -0.553932    1.06963500   -0.85920500
Ge   20.68853000   10.78957000    3.88243000     -0.282311   -0.39733400    0.82862000
Ge    4.48606000   12.50924000   14.23224000      2.428738    0.26107400    0.69312500
Ge    3.91615000   15.98866000    5.03359000      0.101864   -0.10603000   -0.19107800
Ge    1.00394000   20.28197000    0.54769000     -0.503972   -1.37355500   -0.77425000
Ge    2.96801000   17.98603000   10.25333000     -0.405396   -0.10856600    0.37919900
Ge    1.11218000    1.52520000   17.78233000     -0.477506    0.63339300   -0.23832900
Ge   10.00673000    2.85782000    8.01367000      0.664801    0.13901700    1.17579100
Ge    6.77267000    5.51654000   16.54919000     -1.055930    0.25386500   -0.37227900
Ge    8.62053000    8.11373000    5.05646000     -0.486113    0.84317600   -1.05961500
Ge   10.90407000    6.62396000   16.32739000      0.230663    0.48707700   -0.05237300
Ge    6.47608000   16.13547000    9.74745000      0.811648   -0.70629400   -0.08404900
Ge   10.59530000   14.83171000   17.02647000      0.672264    0.66404400    0.52390600
Ge   10.14502000   21.79549000    6.79352000      0.493807    0.51921100   -0.19099100
Ge   10.70140000    1.47329000   13.88790000      1.204287   -1.03350100   -0.85321300
Ge   12.41656000    8.00766000    6.14228000     -0.044968    0.12791200   -1.21865900
Ge   15.07012000    3.09209000   17.21873000     -0.019247    0.18760300   -0.73516100
Ge   15.82448000    9.28889000    6.30993000     -0.022761   -0.48532500   -0.47890100
Ge   15.06349000   12.93859000   15.81446000      0.523134   -0.21726700   -0.37477800
Ge   11.97700000   13.72689000    5.32380000     -0.174896   -0.08214300   -0.27089700
Ge   15.73581000   20.16145000   17.96422000     -1.441470   -0.36661700    1.68366900
Ge   14.57721000   20.77723000    8.76316000     -1.425273    0.58985200   -0.73910600
Ge   17.92391000   22.15568000   13.57670000      0.750900   -0.37689400   -0.16217200
Ge   22.11181000    4.00242000    8.48358000     -0.024694   -0.92267300   -0.58256300
Ge   20.40456000    5.29834000   13.88567000     -0.588221    0.63337800    0.29515500
Ge   18.83384000   10.92683000    7.20965000     -0.708714    0.05589800    0.31843100
Ge   22.34803000   14.97877000   16.30745000      0.038626   -0.42363800    0.55757700
Ge   18.05068000   16.34603000    5.89305000     -1.359350   -0.66422600   -2.12492200
Ge   16.39290000   18.24867000   15.18311000     -0.560932   -0.05734800    0.27888700
Ge   21.92230000    0.19184000    6.33613000     -0.777358    1.00801800    0.03258100
Ge   18.78695000   21.95066000   17.59459000      1.109502    0.07145500   -0.58773900
Ge    7.02311000    1.10380000    7.52557000      0.232831    0.21237100    0.17891500
Ge    3.35535000    2.60172000   12.35744000     -0.046436   -0.50616500    0.75861800
Ge   22.39798000   10.11895000    5.61672000     -0.326843    0.35082200    0.55508400
Ge    3.06605000    7.70071000   11.27985000     -0.205612    0.45319400   -1.86344200
Ge   22.50049000   15.75593000    4.08142000      0.231396    0.92447600    0.21510200
Ge    2.96126000   18.09201000   14.84765000      0.014435   -0.69939400    1.21416300
Ge    4.79828000   21.40747000    9.29985000     -0.835792    0.45844100   -0.05487800
Ge    9.02325000   19.80793000   16.29125000      0.574697   -0.17261600   -0.20564900
Ge    5.42163000    4.47202000    2.40821000      0.441400   -0.10861000    0.19053600
Ge    9.48024000    3.16770000   17.43984000     -0.405777   -0.39721100   -0.23811200
Ge    6.96802000    6.01021000    5.34494000     -0.121325   -1.32186000   -0.57890000
Ge    8.64077000    9.58241000   13.81917000      0.390961    0.17766600    0.24655200
Ge    5.45319000   14.43804000    3.21398000      0.067198    0.22303600    0.12900900
Ge   10.99903000   11.87342000   15.69095000      0.110426   -0.45584700    0.02493300
Ge    7.87174000   21.73340000    3.84858000      0.107917   -1.49598800    0.24875800
Ge    9.31695000   16.05706000   12.77180000      0.177536    1.00493500   -0.14429600
Ge   12.30929000    2.31205000    5.20163000     -0.342138   -1.14736500   -0.39366800
Ge   13.22716000    4.50747000   15.14860000     -0.902512   -1.24369100   -0.61328100
Ge   17.91451000    3.75286000    6.63185000     -1.028894   -0.74946200   -0.32408900
Ge   15.05641000    9.93473000   14.61719000     -0.236446   -0.76297800    0.75137800
Ge   14.59212000   13.69390000    3.27220000      0.053016    0.20417000    0.36529900
Ge   13.49338000   15.91981000   11.86028000     -0.267253   -0.53120100    0.52268200
Ge    9.94603000   18.34852000    4.66770000      0.104653    0.15832300    0.06357900
Ge   12.55989000   20.05510000   15.66151000     -0.397178    0.71668300    0.42179900
Ge    0.73862000    6.01216000    6.00623000      0.183560    0.14550000   -0.29419900
Ge   22.07886000    3.98867000   12.14493000     -0.049477    0.28595600   -0.19123400
Ge   20.23805000    8.32291000    7.74200000     -0.108234   -0.16806400   -0.33707900
Ge   17.29588000   10.92361000   11.98104000      0.046001    0.08981500   -0.19970500
Ge   20.98321000   16.95924000    0.37428000     -0.937287   -0.67773800    0.25500800
Ge   19.30554000   15.55318000   13.99353000      0.298393   -0.80354800    0.01200100
Ge   18.90427000   20.97636000    5.04634000     -1.310472   -0.26288900   -0.16125000
Ge   21.80138000   20.43911000   12.58534000     -0.328053    0.19391300    1.05075200
Ge    3.31339000    1.38199000    3.11910000      0.148233    0.53895000   -1.14666300
Ge    5.53753000    1.08409000   12.02408000      0.421620   -0.31705000   -0.20980500
Ge    5.75387000    9.47847000    4.19270000     -0.536733    0.49651000    0.27676500
Ge    7.14547000    4.99018000   12.99248000     -0.977982    0.27758400    0.09826300
Ge    5.62371000   11.99287000    0.71732000     -1.315631    1.10197300    0.03291600
Ge    4.20995000   10.34531000   12.06645000      0.766229   -1.74216400   -0.03586800
Ge    3.06059000    0.66205000    8.10087000     -0.276357   -0.71757800   -0.25345500
Ge    7.38826000   19.27912000   12.99277000     -0.026942   -0.71628100   -0.17437700
Ge    9.13197000    3.58246000    2.04485000      0.857163    1.04121200    1.41558000
Ge    9.81927000    4.64036000   11.87745000      0.256697    0.48954300   -0.73233100
Ge   11.83871000    9.31247000    1.88356000      0.113852   -0.48574900    0.68671800
Ge   11.60465000    7.84700000   12.14914000     -1.365372    1.58410100    1.24290400
Ge    9.18232000   13.34407000    2.54966000     -0.280887    0.91024200   -0.33489900
Ge    8.07421000   13.01829000   10.71607000     -0.069647    1.08386400    0.04435400
Ge   11.29041000   21.49454000    1.69795000     -0.468726   -0.35862800    0.23955500
Ge   11.86868000   19.22705000   12.23939000     -0.247028   -0.78289300    1.12019700
Ge   22.02511000   21.88701000   16.72453000     -0.165304    0.08740500    0.44101600
Ge   13.51771000    0.89792000    9.43941000      0.119759    0.54913400    0.06859300
Ge   16.09227000    6.66050000    2.28425000      0.211177    0.19285700   -0.38557200
Ge   15.73160000    6.73323000   11.33586000      0.748943   -0.52758800    0.08590400
Ge   17.92018000   12.36889000    1.62427000     -0.000837    0.29174700   -0.75341100
Ge   15.32518000   16.01645000    7.40964000      0.282186    0.02211500   -0.03358100
Ge   16.71422000   21.11530000    2.35342000      0.872518    0.78011400   -0.63289000
Ge   16.22315000   20.14204000   11.21929000     -1.114851    0.01761100    0.78109600
Ge   20.02475000    1.37917000    2.94512000     -0.793168   -0.51858800    0.17584500
Ge    0.44979000    1.11057000   11.17347000      0.021536   -0.20956000   -0.24991700
Ge   21.80704000    7.79038000    2.22549000      0.061751   -0.51749800   -0.01974100
Ge    0.02499000    8.83192000   13.69452000     -0.150085   -0.12583000    0.24153600
Ge   20.72019000   12.61804000   18.56376000     -0.087302    0.93885300    0.36148000
Ge   22.32418000   15.08654000    9.30481000      0.168202   -0.00859500    0.59886800
Ge    3.86847000   21.21079000    5.01091000      0.025445   -0.20063000    0.51958200
Ge   19.54186000   18.49887000   11.22633000     -0.100062   -0.68234600    0.38548300
Se   20.38451000   22.44969000    0.82558000      0.225413    0.22298700   -0.18235900
Se    0.84656000    1.36989000    8.72314000     -0.635975    0.09231100   -0.53420800
Se    4.12060000   11.42106000    3.38844000      0.179115   -0.89307500    0.16336300
Se    0.45010000    6.41593000   14.29833000      0.277152    0.30167200   -1.03681800
Se    0.48415000   12.95962000   17.90514000     -0.097258    0.34363900   -0.40155900
Se    1.13604000   12.73752000    9.29227000     -0.191805   -0.19969300   -0.39330600
Se    1.97400000   17.47395000    4.60093000     -0.208267    0.49930100   -0.13325700
Se    2.01745000   15.58879000   10.61173000      0.540920    0.28273500    0.66197800
Se    4.17923000    1.94670000    0.67759000      0.497400   -0.06447300    0.33707800
Se    7.32395000    3.22207000   11.26811000     -0.256116   -0.24338600   -0.67530100
Se    6.93705000    6.83488000    2.72943000      0.176665   -0.67880000    0.05148600
Se    9.21547000    7.35670000   11.35505000      0.526414    0.14934400    0.70788600
Se    7.43963000   10.41038000    0.86002000      0.782419   -0.77660200    0.00472600
Se    6.67051000   11.31829000   13.11439000     -0.924035    0.05732800    0.10419900
Se    5.20051000   20.22368000    2.38584000     -0.655937    0.89322000    0.30498000
Se    8.86927000   18.38469000   11.00018000      0.639342   -0.45423800    0.68356200
Se   11.38412000    2.74108000    1.04150000      0.178234   -0.96306300   -0.77414700
Se   13.57251000    1.79916000   13.76820000     -0.775666    0.11734900    0.41800000
Se   12.02271000    8.47503000   18.41820000      0.728987   -0.83790600    0.66918900
Se    9.32002000   10.33741000    9.17380000     -0.247144    0.11160800    0.11459900
Se   12.50440000   15.27848000    2.82123000      0.359577   -0.15475000    0.16447100
Se   12.12187000   10.47086000    7.29033000      0.026224    0.28718400    0.56024400
Se   13.92983000   18.83457000    1.88286000      0.252743   -0.10460600    0.35901500
Se   13.57804000   16.96588000    9.47007000      1.621489    0.31592800    0.23647300
Se   19.06640000    3.83346000    1.92368000     -0.686690   -0.79617500   -0.18846400
Se   16.83773000    1.88873000   13.07676000      0.267222    0.51134100    0.98324500
Se   15.03504000    7.35582000   18.51557000      0.484652    0.07788500    0.06007900
Se   18.05049000    5.64785000   12.73356000      0.036375   -0.65816800   -0.93563800
Se   17.89688000    9.71919000    1.41200000      0.684519   -1.08483400    0.07910800
Se   16.14392000   14.01143000    5.75078000      0.490495    0.37679400    0.15178300
Se   20.84353000   19.80265000    0.56304000     -0.070598   -0.29723200   -0.32269100
Se   16.85869000   20.09764000    8.77966000      1.168428   -1.58220700   -0.87472800
Se    0.79396000    0.98892000    2.78175000      1.008071   -2.51007000    0.34380500
Se    6.78678000    6.90124000    9.22150000     -0.154124   -0.22014200    0.34807600
Se    7.55457000   11.22690000    3.09158000      0.049429   -0.02555800    0.31169900
Se    4.50571000   11.23561000    9.23724000      1.303754   -0.32312000    0.04138300
Se    3.89880000   14.12476000    1.34255000     -0.412482    0.12981900   -0.03395900
Se    3.02622000   12.27902000   12.54068000     -2.472723    1.60000000   -1.79451400
Se    2.50515000   22.25013000   18.91441000      0.268965    0.22279800   -0.48018900
Se    6.41722000   19.83563000    9.92933000      0.266679   -0.19855900    0.73714800
Se   12.53638000    5.94495000    4.51057000     -0.842509   -0.13618600    0.99257700
Se    7.77159000    3.76770000    7.65748000     -1.256451   -0.37575500   -0.10959600
Se   11.87191000   11.77812000    1.75606000      0.250271   -0.24548400    0.45475800
Se    7.10363000   10.83261000   10.49992000     -0.136543   -1.16833700   -0.59686900
Se   10.21305000   16.04252000    2.19676000     -0.310605   -0.53065800    0.22704900
Se   12.76832000   13.39680000   13.99339000     -1.198978   -0.07421400   -0.99324100
Se   10.03500000   21.58326000   17.98352000     -0.486661   -0.48874900    0.31700700
Se    7.75633000   21.77247000   12.62527000      0.198508    0.67378000   -0.19549000
Se   14.80233000    5.15085000    0.51820000      0.585338    0.23801500   -0.44922700
Se   16.66222000    6.67386000    8.77118000     -0.148084   -0.62875600    0.44223900
Se   14.57823000   10.55020000    0.23923000      0.783223    0.73041800    0.04096600
Se   14.75416000   12.25613000   13.20797000      0.681454   -0.03771600    0.34599300
Se   18.32013000   15.64865000    2.10564000     -1.209548    0.22727300   -0.73815000
Se   16.09971000   11.11798000    9.77297000     -0.146364    0.11947900    0.03897300
Se   16.83382000   22.50388000    0.03435000     -0.780265   -0.92242800    0.93186500
Se   15.55294000   18.93620000    6.89055000      0.104297    0.25058500    0.33945900
Se   22.53950000    2.96781000    2.40325000     -1.396276    2.98197100   -0.33472100
Se   21.28916000    6.09245000   10.62367000     -0.209303   -0.56937400    1.07771600
Se   21.24501000    5.11217000    0.28214000     -0.528480   -0.10330200    1.22093500
Se   21.00768000   10.90514000   11.84200000      0.817973    0.21188100    0.21449900
Se   19.73544000   15.17167000   17.18269000      0.083330    0.17198600    1.07056700
Se   20.76118000   16.20070000   12.26501000     -0.420148    0.35800500   -0.64746500
Se   20.93260000   21.71632000    4.02619000      0.765700    0.79295000   -0.02192300
Se   18.33466000   21.31022000   11.02379000      0.463245    0.32664100    0.31105600
Se    3.80597000    5.61173000    8.31681000     -0.711117    0.03634400   -0.00396400
Se   21.23755000    2.23898000    0.29158000      0.831468    0.31106400   -0.91935900
Se    2.64757000   10.01382000    8.53529000     -1.189766   -0.96175100    0.40857200
Se    1.04253000    9.73248000   18.12528000     -0.226221   -0.45819000   -0.55202400
Se    3.82447000   18.21164000    7.91362000      0.590527   -0.65043700   -0.52927600
Se    0.51611000   17.81212000   15.24022000      0.002149    0.38397100   -1.26442600
Se    0.52062000   18.25066000   12.68186000     -0.033596    0.34984000    0.40906800
Se    2.06134000   21.09922000   16.75674000     -0.062142   -0.03961700    0.02491700
Se    3.11647000    4.12503000    5.46767000     -0.232608    0.68979800   -0.28927200
Se    5.53641000    6.88769000   18.47140000      0.231588   -0.58365500   -0.58997700
Se    5.55683000    8.59246000    6.64577000      0.860049    0.73050400    0.08434700
Se    3.56394000    7.44661000   17.23550000      0.356257   -0.34055500   -0.11493600
Se    5.85414000   14.05843000   11.62458000      1.068919    0.51711600   -1.04869600
Se    6.60474000   17.51569000   18.43168000     -0.185488   -0.73259800    0.21469600
Se    8.89675000   19.57488000    7.14503000      0.329576   -0.43767200   -0.79617200
Se    6.78210000   19.74650000   17.73169000     -0.595995   -0.65029200   -1.07848900
Se   10.82830000    1.43827000   11.34650000     -0.059452    0.41387700    0.17402500
Se   11.90067000    4.45445000   17.45826000      0.461545    0.58212100   -0.38717800
Se   14.00863000    6.93288000    7.55792000     -0.805079    0.62542100    0.44024900
Se   13.75832000   11.19455000   16.62242000     -0.515711   -1.06107000   -0.14213200
Se   10.54650000   15.14445000    7.03734000      0.611123    0.06648100    0.75968600
Se   14.51118000   16.25396000   18.31363000      0.886630   -0.36706900   -0.23422400
Se   12.64966000    0.22015000    7.01112000     -0.223728    0.27615200   -0.35656400
Se   13.21057000   21.51815000   18.36770000      0.613476    0.49454000   -0.01136600
Se   13.25761000    3.43805000   10.39521000      0.385122   -0.55419900   -0.20134000
Se   22.00442000    3.74757000   16.07777000     -0.362026   -0.72477200   -0.43203300
Se   19.28967000   11.11975000   10.02898000     -0.256378    1.03431500    0.91175400
Se   16.89331000    9.32426000   16.50631000      0.193291   -0.20402200   -0.46997200
Se   13.64068000   15.79982000    5.57281000      0.104205    0.85171900    0.16863300
Se   20.72980000   13.48668000   14.85417000     -0.231400    0.17350300   -0.35956500
Se   19.81983000   20.57750000    7.37689000      0.111151    0.34637100    0.06841700
Se   18.49123000   19.47257000    2.56874000      0.154699   -0.18412000   -0.04589400
Se    4.51541000    2.32882000    8.95475000      0.412012   -0.18642200    0.32206400
Se    2.77859000    3.56270000   18.68547000     -0.499737   -0.27372200   -0.32826200
Se    9.36894000    9.96760000    6.60906000     -0.051553    0.27042400    0.96641200
Se    4.58458000    9.36510000    1.21710000     -0.243412    0.51822000    0.16379100
Se    6.49010000   16.60814000    5.87300000     -0.001382   -0.28270600   -0.29220900
Se    4.79716000   11.36674000   17.40886000      0.149843    0.02599800    0.10204200
Se    0.64911000   19.94802000    9.85626000     -0.194721   -0.31921900    0.38341600
Se    1.66814000   17.65170000    1.37023000     -0.694338    0.50019400   -0.58666100
Se    8.93440000   22.10829000    9.03727000     -0.737794    0.78278700   -0.50144400
Se    7.29100000    2.94778000    0.83087000     -1.427138    0.05935700   -0.85285300
Se   10.83115000    5.19245000    9.34788000      0.186410   -1.77019700    0.00968900
Se    8.81352000    6.00180000   17.68394000      0.159727    0.02962700    0.56100200
Se    8.70414000   12.40468000    6.20255000      0.122620    0.32358400   -1.52996900
Se    8.50605000   13.77624000   17.61092000     -1.121995    0.17521800    0.06787700
Se   12.02878000   20.63730000   10.08597000     -0.204793    0.13865600    0.14467800
Se   11.93760000   13.34657000   18.67988000     -0.191269    0.12488200   -0.38133900
Se   15.28818000    1.09327000    7.36660000      0.037965   -0.74529300    0.72240100
Se   15.08661000    2.16826000    0.57642000      2.264936    1.52711000    0.04979800
Se   16.76931000    3.66321000    8.81884000      0.277094    0.46407800   -0.15843700
Se   13.68774000    7.72149000   15.75599000      0.349350   -0.21348100   -0.62998200
Se   17.07721000    8.99822000    8.66593000     -0.028506    0.12426800   -0.52004400
Se   15.29350000   14.02660000    0.91574000      0.059200    0.92397300   -1.11405600
Se   12.43067000   18.18809000    5.48369000     -0.169317   -0.12887700    0.06642200
Se   17.46625000   18.41687000   17.97764000      0.204944   -0.51400300    0.08487400
Se   20.76692000    2.30307000   10.16976000      0.695153    0.50701700   -0.34531300
Se    0.48739000   21.75508000   14.55125000     -0.316752    0.00840700   -1.56386200
Se   19.70748000    8.77584000   10.10410000      0.440765   -1.54106700    0.17867600
Se   22.48464000    6.18235000   17.71889000      1.205523    0.85712200   -0.79686000
Se   20.89795000   12.03865000    6.98052000      1.437212   -0.58487900   -0.20038000
Se   19.85832000   10.59198000   17.46069000     -0.418251    0.44513000   -1.10423800
Se   18.87905000   16.90895000    7.89763000      0.637175    0.80892600    1.33342000
Se   18.76596000   17.40530000   15.41198000      0.790873   -0.54383800    0.36540300
Se    2.85579000   21.71668000   11.01155000      0.319672   -0.11578300   -0.19873600
Se    2.35133000    2.14502000   14.77142000     -0.431379   -0.22883900    0.03421100
Se    0.29507000    7.73305000    8.00261000     -0.947653    1.09046900   -0.89348700
Se    1.44790000    9.56378000   15.64013000      0.693034    0.62322800    0.88590700
Se    2.83334000   15.50197000    7.23522000      0.814096   -0.47273100    0.09887100
Se    3.22567000   13.17072000   16.07471000     -1.009533    0.58775900    1.49585700
Se    0.81525000   16.77476000    7.84557000     -0.255850    0.65713700   -1.34047300
Se    3.11675000   20.35118000   13.85657000      1.013418   -0.43063100   -0.04334400
Se    6.38626000    0.69649000    2.82362000     -1.068434   -0.15157200   -0.34817400
Se    6.69028000   21.09275000    0.71467000      0.971931    1.29093900    0.31280300
Se    9.86656000    6.34463000    6.00161000      0.641066   -0.20713700    0.69414600
Se    4.49261000    4.26545000   13.75702000      0.850859    0.66913600    0.25822500
Se    4.34367000   12.99070000    5.22080000      0.701224    0.07489500   -0.16033800
Se    9.93192000   14.47913000   14.76741000      0.069590   -1.20923500   -0.47611300
Se    6.95152000   18.07832000    4.11910000     -0.295227   -0.15332300   -0.41517000
Se    8.14212000   17.11215000   14.88440000      0.035607    0.55751900   -0.32268900
Se   13.63442000    0.49712000    3.47661000     -0.229708    0.00500700   -0.09761000
Se   13.35173000    0.49693000   15.98194000      0.234513    0.09313500    0.13235700
Se   13.79863000    9.91282000    4.38646000      0.007386   -0.55030000    0.48863800
Se   11.24668000    5.97232000   13.86522000      0.029326   -0.66253600    0.14363500
Se   14.34841000   12.19893000    5.62322000     -0.685724   -0.43787500    0.13868000
Se   13.75087000   14.85636000   15.55518000     -0.179341    1.12227500    0.46656400
Se   11.69750000   19.26022000    7.97457000      0.019317    0.32734000   -0.80409100
Se   11.68917000   18.94110000    0.60976000      0.406795    0.01376800    0.26109800
Se   19.41272000    1.63336000    6.66414000     -0.567371   -0.60450900    0.09883000
Se   19.91957000    1.47294000   15.88571000     -0.041558   -0.61401100    0.03044500
Se   20.04259000    4.81286000    7.20292000      0.611371    1.80624700    1.00965100
Se   19.11524000    6.54248000   15.74084000     -0.209679   -0.57321100    1.00631400
Se   19.16635000   12.70060000    3.69335000     -0.133987    0.28084800    0.68885300
Se   17.22290000   14.41644000   13.52314000      0.001358    0.17678300   -0.15483800
Se   16.85524000   18.08397000    4.50273000     -0.100081   -0.37055600   -0.22810600
Se   16.90780000   20.73309000   16.01357000      0.484089    0.43165900   -1.44631800
Se    2.18520000    8.25621000    5.37880000     -0.801478    0.06930000   -1.11671800
Se    2.92421000    6.86894000   13.35349000     -0.063020   -0.65732900    1.86903400
Se    0.98371000   12.23545000    4.78307000      0.401430   -0.23898100   -0.53119300
Se    4.35801000   10.20942000   14.91477000     -0.048000   -1.30898900   -0.38404000
Se    5.66301000   14.49108000    7.98707000     -0.469897   -0.12022700    0.20754200
Se    3.57243000   16.68074000   17.00050000     -0.007978    0.67690300    0.01229600
Se    2.66061000   20.60324000    7.37243000      0.262655    0.32052300   -0.23206800
Se    6.03229000    0.19230000   14.66615000     -0.221571   -0.13517100    0.15350200
Se    8.85887000    0.97277000    5.10000000      0.235955    0.15652800    1.74915700
Se    7.15215000    1.67419000   17.80280000      0.488130    0.10405800   -0.41056000
Se   13.02202000   11.83640000    9.15061000     -0.316285   -0.46882000    0.02232600
Se   10.21462000    9.83012000   17.62228000     -0.881391    0.40387700   -0.51765500
Se    8.10859000   14.26257000    8.32376000     -0.081528    0.00052100    0.08775000
Se   11.66734000   16.73194000   13.77375000     -0.227124    0.67392500   -0.90808500
Se   10.95441000   20.61743000    4.14329000     -0.027621   -0.26901600    0.53317200
Se   10.37754000   17.63509000   17.05327000     -0.480199    0.00053200    0.51852600
Se   10.26335000    3.67353000    5.73191000      0.764466    0.03129100   -0.65265000
Se   17.36806000    4.13744000   16.95838000     -0.143965   -0.01137100    0.23937900
Se   17.35453000    7.19820000    5.57580000      0.063145    1.03871500    0.36175600
Se   17.09195000    8.49297000   12.49039000     -0.129362    0.49223400    0.24071000
Se   17.67233000   10.68472000    5.06517000     -0.623952   -0.25346900    0.15643400
Se   14.00313000   18.02607000   16.42176000      0.492451    0.11394600   -0.01073100
Se   15.86074000    2.81135000    4.45973000     -0.373598   -0.27919200   -0.00923400
Se   19.27758000    2.64739000   12.14110000     -0.396752    0.29925600    0.35327500
Se   22.50912000    2.97798000    5.66432000     -0.149935    0.57177200    0.07305300
Se    1.68568000    4.51970000   15.87363000     -0.013923   -0.27288300   -0.23021300
Se   18.16402000   13.37819000    7.85941000     -0.559659   -0.01460700   -0.30018700
Se   22.39633000   13.03840000   13.15563000     -0.138270   -0.32031300    0.35054700
Se   19.92920000   15.23715000    4.58890000     -0.544611    0.51359700    1.10264700
Se   19.53828000   19.78739000   13.72754000      0.915880   -0.00852600    0.10538300
Se   21.47334000   17.79050000    9.36614000      0.088645    0.74511900    0.22394700
Se   20.47032000   19.81501000   16.74816000      0.231649    0.42249500    0.37236700
Se    3.19153000    0.98972000    5.59211000      0.117175   -0.23918900    0.70441000
Se    7.09855000    2.71403000   14.49390000     -0.860731   -0.19717600    0.14001000
Se    1.87891000    7.35493000    2.31855000      0.132281   -0.10252200    0.33090800
Se    5.73831000    6.82290000   11.44872000      0.244151    0.10578000   -0.26821600
Se    1.51195000   15.08474000    2.31540000      0.103862   -0.81944200   -1.30729800
Se    5.89549000   15.26906000   14.58748000      0.503852   -0.20407300    0.11480600
Se    4.54971000   18.09653000    3.03502000      0.359826   -0.75758200    0.09998500
Se    5.23859000   17.40939000   11.37920000     -0.824643    1.28834800    0.56386500
Se   10.17096000    1.46445000    2.85313000      0.065647   -0.49893900    0.26630500
Se   10.52323000    0.74268000   16.44787000      0.267914    0.22715700    0.00445600
Se    9.77525000    8.20589000    2.72851000      0.136658    0.18573500   -0.35369200
Se    7.05946000    7.61235000   14.54305000     -0.167314   -0.49214800    0.96634500
Se   10.13976000   11.64089000    4.15194000      0.790707   -0.07552900    1.01424600
Se    9.49658000   11.37987000   12.06286000      1.369667    0.10276600    0.08957800
Se    9.06915000   19.56888000    1.29013000      0.109612    0.70078000    0.40592600
Se   16.67176000   17.90054000   12.35171000     -0.331433    0.29151900    0.67765200
Se   14.06966000    3.84954000    5.67832000      0.555729    0.30303600    0.62894900
Se   15.99103000    0.47684000   15.77079000     -0.338444    0.64690500    0.27064500
Se   16.79714000    5.28181000    4.35287000     -0.026952   -0.29692300   -0.30812200
Se   13.26090000    9.87340000   10.58934000     -0.400484   -0.32474500    0.18130100
Se   15.55598000   11.40371000    2.28007000     -0.038081   -0.48734500    0.93660400
Se   17.28680000   13.03648000   16.33316000      0.302661    0.26069200    0.44838700
Se   15.86222000   16.34397000    2.61731000      1.360912   -0.07605600    0.09517900
Se   14.53308000   22.06525000   12.24826000      0.328291   -0.19411300    0.38636300
Se    0.04289000   20.41042000    6.58827000      0.974041   -1.30638600   -0.28759000
Se   20.46041000    0.79427000   13.48714000     -0.318329    0.19772300    0.36198900
Se   21.12306000    6.62437000    4.36580000      0.625218   -0.57732000    0.14582400
Se   20.06855000    8.07857000   14.32485000      0.175436    0.63529200   -0.71616900
Se    0.29125000   14.15976000    6.00120000      0.407106    0.26041400    0.04607500
Se    1.61431000   14.50015000   14.41915000      0.023783    0.09560300    0.10237000
Se   21.15664000   17.87035000    4.06054000     -0.175267   -0.03028900   -0.21966700
Se   21.15128000   21.40074000   10.26134000      1.045814   -0.46371200    0.33669200
Se    2.74919000    3.94982000    3.03928000      0.211464   -0.15124600    0.74198500
Se    1.80596000    3.88066000   11.01233000     -0.091375   -0.10673000   -0.10290900
Se   21.33975000   11.00670000    1.68704000      1.328680   -0.61756200   -1.73838400
Se    1.36947000    9.60722000   11.61483000     -0.334146   -0.30701600   -0.10670200
Se    0.42086000   17.31969000   17.97811000      1.076987   -0.36843500    0.44094000
Se    4.00775000   16.16548000   13.55471000     -0.503821   -0.17110800   -0.87444700
Se    1.89343000   21.03773000    2.64854000      1.138533   -0.44656900    1.52040800
Se    5.36416000   20.20699000   15.04496000     -0.539396    0.53237700   -0.67378000
Se    6.72236000    3.48936000    4.39926000     -0.013401    0.54328200   -0.56393500
Se    9.37364000    3.41195000   14.53838000      0.507860    0.91800200    0.79914600
Se    4.43282000    6.23812000    5.29373000     -0.270751   -0.69596200    0.06701700
Se    8.35082000   10.95973000   16.03099000     -0.223638    0.28319200   -0.65940000
Se    7.30766000   14.50164000    0.94446000     -0.479891   -0.18412000   -0.22474900
Se   11.64237000   14.51762000   10.94706000     -0.281780   -0.04622700   -0.28443100
Se    6.87657000   20.77481000    6.26070000     -0.663079   -0.03555400   -0.05716300
Se   10.67931000   20.68849000   14.05534000     -0.259167   -0.14003100   -0.49143400
Se   13.03702000    4.05291000    2.11065000     -0.696093   -0.21827100    0.18422600
Se   13.17837000    6.54876000   11.14555000      0.913123   -0.61972000   -1.07390000
Se   13.27059000    7.04791000    2.70214000      0.671257    1.26228600   -1.20044500
Se   11.46052000    9.66484000   14.30439000     -0.137754   -0.22706400   -0.35862500
Se    8.46087000   14.62733000    4.45476000     -0.114344   -0.12155900    0.66030000
Se   15.60172000   13.48825000   10.23050000     -0.342415    0.55593400   -0.04491900
Se   14.85072000   20.35946000    3.65478000     -0.629989   -0.45824800   -0.34831400
Se   14.12299000   20.09541000   13.75505000      0.133421   -0.47968400   -0.69638300
Se   18.55719000    6.02332000    1.20492000     -0.265964    0.37436900    0.62201600
Se   15.10381000    5.85462000   14.80311000      0.500712    1.30945400    0.09966000
Se   19.60928000    8.44107000    3.92220000     -0.733675    0.23018700   -0.10768800
Se   19.83412000   13.81259000   10.62644000     -0.448641    0.40196500   -0.03024800
Se   21.54626000   14.57368000    1.66364000      0.273275    0.47018100    0.00242900
Se   17.19544000   16.79693000   10.30173000      0.498466    0.07824000   -0.69917400
Se   17.46403000    0.53070000    3.65313000      0.495561   -0.21236200    0.15968700
Se   16.47663000    1.31282000   10.84875000     -0.196189   -1.45983800   -0.97788200
