384
22.54784000 22.54784000 18.93360000
Ge    5.96085000    4.37249000    9.43225000      0.091755    0.93440100   -0.99470600
Ge    4.42221000    7.61544000    3.09482000      0.740109    0.40148200   -0.71997900
Ge    2.39939000   11.95157000    7.02222000      0.054671    0.87338700   -0.34580800
Ge    7.01750000    8.79725000   16.63752000     -0.396694   -0.19763800    0.41085300
Ge    3.74697000   13.63775000   10.11161000      0.025096   -0.03267300    0.42352800
Ge    8.85482000   17.32293000    0.44593000      0.146521   -0.08203400   -0.60311100
Ge    6.72179000   18.18210000    7.95410000     -0.611757    0.30896500   -0.01867600
Ge    4.50785000    2.88433000   15.76847000      0.768487   -0.13357700    0.80651900
Ge    9.50205000    7.10661000    8.70925000     -0.466034    0.45058400    0.17217700
Ge   11.35840000    6.08205000    0.77130000      0.072317    0.19596000    0.27765700
Ge   12.06930000    8.45757000    9.14117000      0.206242   -0.90871000   -0.74881900
Ge    9.72792000   11.84672000    0.20299000     -0.002764    0.86580400    0.29711900
Ge   11.23438000   17.07434000    9.01145000     -0.989532   -0.32307100    0.47881400
Ge   12.28811000   16.44976000    0.30032000     -1.164811   -0.69532600    0.50326500
Ge   10.06007000   21.73909000   11.43961000     -1.245093   -1.53511400   -0.29526900
Ge   13.37704000    0.73193000    1.07590000     -0.746766   -0.10142600   -0.41081500
Ge   18.70152000    5.30188000    9.60276000     -0.359095    0.08993800    0.55323000
Ge   17.67293000    7.35219000   18.36875000     -1.177299    0.87931200   -1.24963600
Ge   17.51258000   14.47633000   11.16464000      0.453942    0.47022200   -0.58968800
Ge   17.25438000   11.14570000   18.23576000     -0.040184   -0.96758800   -0.81564600
Ge   12.71160000   14.42070000    8.75105000     -0.444649    0.24197400    0.43805200
Ge   17.02404000   15.63760000   18.24936000      0.893050   -0.01047900    0.50447200
Ge   15.55075000    3.44766000   11.25277000     -0.936763    1.70050200   -0.27719300
Ge   18.34875000    2.37199000   18.38053000      0.163550    0.78108200    0.14371800
Ge    0.70834000    6.04086000    9.48869000      2.131950   -0.88668000    1.08586000
Ge   20.11927000    3.62696000    4.95499000      0.965152   -0.12659200   -0.43065100
Ge   22.20009000   10.51077000    9.17534000      0.053207    0.45971800    0.43489500
Ge   20.18083000    8.92750000    0.30763000     -0.461832    0.86859900   -0.02376200
Ge   20.27203000   14.82115000    7.47182000      0.002936   -0.67051100   -0.39537500
Ge    5.41447000   14.73576000   17.04068000     -1.231646    0.58876300    0.47114500
Ge   17.78222000   22.36862000    7.78714000      0.432993    0.44319400   -0.02627600
Ge    0.29026000   19.89134000    3.94037000     -1.419704   -2.00909000    1.98379100
Ge    3.37594000    7.87297000    7.42526000      0.874596   -0.62787100   -0.59272100
Ge    1.71916000    7.26899000    0.03485000      0.191444    1.43712700   -0.77044700
Ge   20.61035000   10.76733000    3.83738000     -0.224957    0.07927000    1.35266900
Ge    4.52829000   12.51019000   14.21190000      1.051160   -0.49288700   -0.08736400
Ge    3.82661000   15.83353000    4.96858000      0.121353    0.38638200   -0.07212400
Ge    0.89146000   20.45289000    0.58649000      0.004844   -1.86828500   -0.48021600
Ge    3.04948000   18.00766000   10.27763000     -0.864779   -0.11859500    0.93609000
Ge    0.99410000    1.51781000   17.67370000     -0.176664    0.63135700    0.14814900
Ge   10.04585000    2.89997000    8.17839000      0.514662    0.18426000    0.00125200
Ge    6.72729000    5.46338000   16.51982000     -0.787899    0.32983700   -0.12738600
Ge    8.60693000    8.12586000    5.03015000     -0.244382    0.07969300   -0.80293200
Ge   10.93593000    6.63781000   16.19787000      0.117187    0.28971900    0.72129000
Ge    6.43771000   16.18668000    9.70158000      0.811615   -1.14003000   -0.18347700
Ge   10.64251000   14.76251000   17.03192000      0.419121    0.54829500    1.20973500
Ge   10.20205000   21.83967000    6.77420000      0.037881    0.46832800   -0.19790700
Ge   10.79338000    1.52246000   13.95063000      1.052674   -0.80244600   -0.89247700
Ge   12.41536000    8.14794000    6.05718000      0.183280   -0.20805200   -1.02125200
Ge   14.98801000    3.07366000   17.13028000      0.612331    0.04444100   -0.30678500
Ge   15.94064000    9.23238000    6.30818000     -0.834380   -0.46272000   -0.48171700
Ge   15.08396000   13.01173000   15.80269000      1.553934   -0.51872800   -0.79820100
Ge   11.88715000   13.66128000    5.36311000      0.035371   -0.00060500   -0.14835600
Ge   15.65061000   20.14316000   17.93714000     -0.492051   -0.26719300    0.97455600
Ge   14.50253000   20.79634000    8.77538000     -0.950555    0.56362600   -0.81187600
Ge   17.91815000   22.10010000   13.49900000      0.888321   -0.51021700    0.06907600
Ge   22.12757000    4.05043000    8.40979000     -0.070547   -1.36020300   -0.78754200
Ge   20.42294000    5.33424000   13.95799000     -0.030051    0.20085800   -0.14416000
Ge   18.77614000   10.81308000    7.27828000      0.015077    0.77764500   -0.11727700
Ge   22.24478000   15.00108000   16.41614000      0.722986   -0.43294200    0.26910700
Ge   18.01039000   16.30673000    5.82921000     -1.161018   -0.53867000   -0.64110300
Ge   16.39287000   18.33680000   15.13574000     -0.075002   -0.25154300    0.41269500
Ge   21.74839000    0.17230000    6.42073000     -0.139027    0.03943600   -0.11766400
Ge   18.81815000   21.92122000   17.57907000      0.347024    0.22408700   -0.41149600
Ge    6.93475000    1.19988000    7.52799000      0.158474   -0.46671000    0.02736900
Ge    3.31288000    2.55334000   12.31049000      0.181626   -0.00778600    0.76090000
Ge   22.43201000   10.17279000    5.58846000     -0.369820    0.76585700    0.24731400
Ge    3.11893000    7.70733000   11.22754000     -0.449465    0.66841500   -1.97982500
Ge   22.47490000   15.83165000    4.10155000      0.614465    1.04004900   -0.18088200
Ge    3.13811000   18.10779000   14.84132000     -0.652864   -1.00953600    1.73479100
Ge    4.82831000   21.46730000    9.24625000     -0.848484    0.35367200   -0.10403900
Ge    8.98525000   19.92968000   16.21921000      0.567015   -0.52609300    0.10652200
Ge    5.48121000    4.47792000    2.31283000     -0.294165    0.50276000   -0.39467800
Ge    9.51748000    3.22878000   17.53895000     -0.281493   -0.27723300   -0.26085600
Ge    7.01681000    5.79919000    5.43247000     -0.301857   -0.65387300   -0.74805200
Ge    8.61942000    9.50409000   13.79247000      0.592151    0.48771700   -0.22296600
Ge    5.48067000   14.35894000    3.09193000      0.263945    0.30097600    0.05424400
Ge   10.87202000   11.77655000   15.81426000      0.432412   -0.22660100   -0.33755300
Ge    7.77865000   21.62688000    3.84211000     -0.088173    0.14462700    0.29962600
Ge    9.28678000   16.15385000   12.77253000      0.188362    0.59633000   -0.23703500
Ge   12.24020000    2.17090000    5.15317000      0.513762   -0.25544000    0.01431200
Ge   13.30121000    4.43606000   15.15215000     -0.742844   -1.00925100   -0.46687300
Ge   17.93898000    3.81428000    6.56282000     -1.152839   -0.73213000    0.11247400
Ge   15.06454000    9.86620000   14.66361000     -0.083542   -0.28773600    0.79254900
Ge   14.61212000   13.69456000    3.35150000      0.222327   -0.12701900   -0.01183800
Ge   13.50677000   15.93425000   11.91184000     -0.366205   -0.88730800    0.46409200
Ge    9.86775000   18.43113000    4.72765000      0.109819   -0.11030700   -0.10159700
Ge   12.67587000   20.07697000   15.61435000     -1.726932    0.52999300    1.62413000
Ge    0.74048000    5.98990000    5.90005000      0.261839    0.14517000   -0.01261800
Ge   22.05860000    4.06033000   12.04928000     -0.028589   -0.06747800    0.07554000
Ge   20.23605000    8.25941000    7.69114000      0.131010   -0.11767400   -0.18220500
Ge   17.21995000   10.95493000   12.01795000      0.123218    0.48029000   -0.12139300
Ge   20.99698000   16.86886000    0.35316000     -0.561164   -0.45935500    0.18094200
Ge   19.31627000   15.51140000   13.96296000     -0.273171   -0.64272300    1.16256800
Ge   18.83951000   21.03730000    5.00184000     -0.651322   -0.37751700    0.01013000
Ge   21.88134000   20.35146000   12.55388000     -0.419186    0.56551600    0.59355400
Ge    3.32747000    1.28735000    3.08867000      0.164114    0.91067900   -0.62922300
Ge    5.64183000    1.05350000   12.04880000      0.247391   -0.35634100    0.01629900
Ge    5.79031000    9.45158000    4.25559000     -0.330941    0.26112600   -0.06430900
Ge    7.10179000    5.03448000   12.80773000     -0.417571    0.10278200    0.65899200
Ge    5.52085000   12.14645000    0.76011000     -0.050546   -0.33036600   -0.28688500
Ge    4.33374000   10.24305000   11.98419000     -0.142621   -0.19066100    0.31894000
Ge    2.99193000    0.69216000    8.09845000     -0.420676   -0.91957800    0.39404700
Ge    7.37618000   19.23228000   13.00016000     -0.148461   -0.73957800    0.27423000
Ge    9.02521000    3.54778000    2.14590000      1.478043    1.56670400    1.81875300
Ge    9.81366000    4.53599000   11.84443000      0.175848    0.61610200   -0.48171400
Ge   11.89608000    9.38292000    1.99622000      0.400205   -0.98837400    0.27939600
Ge   11.69168000    7.81781000   12.26550000     -1.450482    1.79095600    0.35332300
Ge    9.27427000   13.40798000    2.46142000     -0.487014    0.45817800    0.16915200
Ge    8.06068000   13.09671000   10.66295000      0.280220    0.55429900    0.19904500
Ge   11.23014000   21.53280000    1.61824000     -0.537508   -0.42283900    0.43799700
Ge   11.90874000   19.09295000   12.28739000     -0.490384   -0.33272600    0.86199400
Ge   21.99085000   21.85853000   16.66555000      0.026565    0.15614200    0.67805200
Ge   13.56102000    0.91681000    9.48412000      0.063209    0.65313600    0.21866000
Ge   16.09075000    6.73285000    2.37532000      0.061597   -0.00399300   -0.64872500
Ge   15.77619000    6.86766000   11.52274000      0.748029   -1.03802300   -0.30045600
Ge   18.00992000   12.40089000    1.54168000     -0.268942   -0.01820700   -0.72191200
Ge   15.26819000   16.05243000    7.49374000      0.265269    0.10201900   -0.32922700
Ge   16.69098000   21.01966000    2.34765000      1.414041    1.49605900   -1.37053800
Ge   16.18373000   20.18704000   11.25338000     -0.412509   -0.10441300    0.98757200
Ge   19.92100000    1.41143000    3.02664000     -0.518970   -0.59338300   -0.08825200
Ge    0.46483000    1.16505000   11.22614000      0.052803   -0.12059400   -0.34298300
Ge   21.81446000    7.86528000    2.19452000     -0.204836   -0.53291600    0.42053500
Ge   22.51901000    8.84382000   13.73885000      0.318217   -0.32196700    0.16019600
Ge   20.64984000   12.68929000   18.53576000      0.013502    0.30725600    0.31086100
Ge   22.33469000   15.05384000    9.37902000      0.266633    0.38289900    0.42958000
Ge    3.91485000   21.25572000    5.11032000     -0.014039   -0.23826900    0.51236700
Ge   19.57264000   18.45800000   11.30756000     -0.461962   -0.59509500    0.22622700
Se   20.26819000   22.46344000    0.77246000      0.578994    0.60739200    0.23566600
Se    0.77853000    1.40090000    8.76354000     -0.411517   -0.31852000   -0.85412000
Se    4.22198000   11.48071000    3.50167000     -0.135683   -0.80829800   -0.01208600
Se    0.48381000    6.41965000   14.40195000      0.041475    0.51275700   -1.16737800
Se    0.45131000   12.89482000   17.81036000     -0.247216    0.48256300   -0.24940600
Se    1.10098000   12.79027000    9.29697000      0.166161   -0.50357200   -0.42373100
Se    1.98947000   17.67296000    4.57047000     -0.220008   -0.18251900   -0.26933800
Se    1.94441000   15.60799000   10.76819000      0.664952    0.51699500    0.49925500
Se    4.15192000    1.96304000    0.70057000      0.369241   -0.09015700   -0.05585400
Se    7.31174000    3.29022000   11.07533000      0.454893   -0.91404900    0.52697700
Se    6.97723000    6.81829000    2.73779000     -0.351704   -0.31862100    0.47545900
Se    9.24137000    7.33197000   11.30091000      0.613552    0.17077700    0.95499400
Se    7.50766000   10.33202000    0.85512000     -0.095676    0.36573000    0.60560100
Se    6.68274000   11.33934000   12.99348000     -0.708162   -0.22666100    0.34879600
Se    5.12946000   20.21533000    2.52398000     -0.089185    1.49531900   -0.32608900
Se    8.79545000   18.43392000   11.10433000      0.975921   -0.71934300    0.23900200
Se   11.34035000    2.73288000    1.04761000      0.074404   -0.50999400   -0.87701300
Se   13.60176000    1.78375000   13.67553000     -0.849503    0.13579400    0.71503800
Se   12.05482000    8.43252000   18.46880000     -0.058477   -0.17004500    0.64076100
Se    9.34664000   10.45545000    9.06940000     -0.258866   -0.08030800    0.81315800
Se   12.47476000   15.30835000    2.79449000      1.336962   -0.40059400    0.44790300
Se   12.02319000   10.44401000    7.22325000      0.078892    0.27245000    0.39639800
Se   13.97622000   18.80417000    1.73302000     -0.018112    0.12640000    0.31303100
Se   13.67141000   16.86465000    9.51364000      0.036310    0.30521900   -0.27349400
Se   19.03506000    3.82733000    1.84605000     -0.639404   -1.27225400   -0.06440800
Se   16.86493000    1.84621000   13.14220000      0.230388    0.47557800    0.73758700
Se   15.00874000    7.32257000   18.44185000      1.078870   -0.28876500    0.41529300
Se   18.13870000    5.63254000   12.75760000     -0.300935   -0.67065400   -0.99952000
Se   17.91014000    9.66012000    1.48461000      0.603791   -0.54657800   -0.26378000
Se   16.11222000   13.98823000    5.67170000      0.625930    0.31188100    0.15730300
Se   20.94735000   19.82963000    0.55388000     -0.655765   -0.41252900   -0.33568900
Se   16.80447000   19.96210000    8.84308000      1.424460   -0.65900900   -0.67802600
Se    0.83211000    0.96071000    2.78032000     -0.179026   -0.68754000   -0.06186200
Se    6.81358000    6.81992000    9.19947000     -0.031765   -0.10732200    0.29020900
Se    7.54735000   11.27802000    3.09198000      0.097407   -0.22237900   -0.32247600
Se    4.63648000   11.15595000    9.23505000      0.865776    0.05214700    0.21591000
Se    3.75405000   14.07948000    1.31362000     -0.149781    0.17775700   -0.22074100
Se    2.91516000   12.28143000   12.47458000     -0.261341    0.14295300   -0.90721200
Se    2.43504000   22.20264000   18.84337000      0.429185    0.74557500   -0.46041400
Se    6.41962000   19.91778000   10.03839000      0.166815   -0.31897000    0.26271700
Se   12.55546000    5.89487000    4.55851000     -0.400473    0.58098300   -0.05467900
Se    7.71126000    3.60352000    7.64463000     -0.602213    0.29094100   -0.19501200
Se   11.92116000   11.76491000    1.77469000      0.263252    0.30862000    0.42383200
Se    7.17536000   10.82497000   10.46725000      0.161213   -0.85137000   -0.62626500
Se   10.35868000   16.02363000    2.19566000     -1.647612   -0.11074900   -0.12709700
Se   12.64682000   13.50092000   13.92962000     -0.432910   -0.20624700   -0.13205400
Se    9.99352000   21.60677000   17.98619000     -0.545598   -0.62862300    0.34751700
Se    7.61998000   21.71955000   12.70167000      0.577859    1.13758500   -0.61823700
Se   14.72750000    5.08650000    0.64299000      1.101724    0.78923900   -0.78521400
Se   16.71797000    6.68306000    8.71698000     -0.497758   -0.90494400    0.77268400
Se   14.62105000   10.57441000    0.18767000      0.938356    0.79905000    0.17412400
Se   14.72336000   12.26597000   13.21178000      0.654533   -0.07882300    0.56597400
Se   18.25524000   15.66679000    1.99470000     -0.858156    0.16369300   -0.73715800
Se   16.05007000   11.01774000    9.82633000     -0.236201    0.73847100   -0.16130200
Se   16.84515000   22.53212000    0.16322000     -0.683181   -1.23718800    0.26216800
Se   15.58174000   18.94822000    7.02966000     -0.329649   -0.07537300   -0.12309300
Se   22.47654000    3.05454000    2.50643000     -0.572546    1.42854000   -0.21560300
Se   21.25922000    6.08464000   10.65274000     -0.638667   -0.14112400    1.21940600
Se   21.23538000    5.17813000    0.29957000     -0.721640   -0.47607500    1.45738400
Se   20.98743000   10.74531000   11.79442000      1.064584    0.49396200    0.67238200
Se   19.78652000   15.26283000   17.28250000      0.036674    0.01763500    0.80587900
Se   20.72149000   16.22104000   12.33241000      0.145772    0.34590600   -1.29430500
Se   20.93730000   21.66813000    3.94154000      0.191612    0.98074500    0.29978000
Se   18.41364000   21.32624000   11.08379000     -0.171909    0.05812100   -0.25185300
Se    3.71107000    5.57029000    8.30777000     -0.453136    0.30654300   -0.05952100
Se   21.29639000    2.26461000    0.24579000      0.615260    0.06745200   -0.48986700
Se    2.75118000    9.92452000    8.54742000     -1.281317   -0.10452300    0.79180500
Se    1.03259000    9.70641000   18.02949000     -0.145504   -0.48509800   -0.51568800
Se    3.76609000   18.11954000    7.97497000      0.732230   -0.53554900   -0.96673700
Se    0.47396000   17.86572000   15.07886000      0.660923    0.07159700    0.11121100
Se    0.55392000   18.19591000   12.76645000      0.106479    0.27112500   -0.67767400
Se    2.09064000   21.05041000   16.69430000     -0.133755    0.09645200    0.18874400
Se    3.13019000    4.08063000    5.48477000     -0.196125    1.09843800   -0.95949800
Se    5.48142000    6.89169000   18.49146000      0.533650   -0.46299700   -0.47814300
Se    5.65966000    8.62358000    6.69340000      0.324237    0.38213700    0.12550000
Se    3.55042000    7.45799000   17.31495000     -0.273363   -0.30409500   -0.08214900
Se    5.90165000   14.03982000   11.63055000      0.699884    0.70045400   -1.08683000
Se    6.62795000   17.52625000   18.43168000     -0.489977   -0.23932700   -0.09228800
Se    8.85808000   19.55536000    7.08387000      0.502456   -0.08943900   -0.47445300
Se    6.67909000   19.83855000   17.67808000     -0.749546   -1.02138600   -0.86975200
Se   10.76661000    1.34116000   11.31997000      0.464391    1.85616300    0.38916600
Se   11.98776000    4.40242000   17.54577000      0.156608    0.99245600   -0.55477800
Se   13.87887000    7.08745000    7.60968000     -0.530194    0.54239100    0.43574000
Se   13.81149000   11.30118000   16.61224000     -0.719549   -1.77055100    0.12515800
Se   10.56958000   15.26736000    7.03767000      0.468341   -0.05724900    0.98018500
Se   14.55330000   16.29918000   18.33807000      1.202195   -0.55905600   -0.33027600
Se   12.69063000    0.22724000    7.05623000     -0.547881    0.24277000   -0.40997600
Se   13.23276000   21.44570000   18.37989000      0.573949    0.67385400   -0.23769000
Se   13.22783000    3.43545000   10.30743000      0.512995   -0.73017100   -0.20228600
Se   21.94832000    3.77815000   16.08801000      0.162187   -0.71539900   -0.38995600
Se   19.37358000   11.10379000   10.05205000     -0.914224    1.13391300    0.53225500
Se   16.97415000    9.29819000   16.54885000     -0.178034   -0.05581600   -0.59126800
Se   13.60537000   15.82243000    5.51822000      0.370489    0.88440500    0.69516500
Se   20.84487000   13.44192000   14.95893000     -0.949980    0.20642200   -0.81364900
Se   19.87461000   20.50517000    7.45303000      0.240249    0.66084700   -0.37332600
Se   18.40888000   19.44774000    2.55557000      0.717479   -0.52243200    0.11020500
Se    4.51825000    2.31972000    8.90005000      0.512084    0.04169000    0.45564500
Se    2.74099000    3.60274000   18.69266000     -0.449585   -0.58096400   -0.17826700
Se    9.30496000   10.07286000    6.69195000     -0.193673   -0.41316000    0.16710500
Se    4.60225000    9.36596000    1.18580000     -0.059335    0.60814500    0.23613700
Se    6.51922000   16.56180000    5.93073000     -0.124152    0.21180900   -0.75251900
Se    4.70421000   11.18383000   17.39730000      0.071303    0.30298800    0.16138100
Se    0.59218000   19.79752000    9.85656000     -0.307128   -0.23158100    0.31490900
Se    1.55971000   17.69150000    1.33407000     -0.575361    0.41463800   -0.64920500
Se    8.93683000   22.14489000    9.00450000     -0.537484    0.68235400   -0.33886500
Se    7.31892000    3.00208000    0.82145000     -2.187745   -0.44890200   -1.92127900
Se   10.80381000    5.16644000    9.37323000     -0.064396   -1.27155300   -0.27073800
Se    8.75126000    5.97917000   17.68734000      0.482022   -0.06312100    0.30137900
Se    8.66331000   12.39345000    6.18664000      0.301306    0.79070700   -1.58029700
Se    8.47109000   13.78282000   17.50904000     -0.371509    0.03152100    0.30542600
Se   12.06642000   20.64929000   10.02058000     -0.391712   -0.11072000    0.57393300
Se   12.11577000   13.28631000   18.64701000     -0.777513    0.23753500   -0.48772500
Se   15.25677000    1.00047000    7.38419000      0.447444   -0.46737700    0.49184100
Se   15.15838000    2.20059000    0.59204000      0.954742    0.72448100   -0.19747500
Se   16.88245000    3.65408000    8.88351000     -0.000687    0.24234900   -0.20575000
Se   13.60332000    7.71387000   15.69604000      0.381444   -0.04312500   -0.50538100
Se   17.01265000    9.04003000    8.64567000      0.411031    0.00518300    0.06076500
Se   15.33471000   14.03802000    0.85370000     -0.164268    0.79034200   -0.67717300
Se   12.42938000   18.09458000    5.51664000     -0.152529   -0.01137200   -0.25372900
Se   17.46660000   18.43986000   17.93010000     -0.011821   -0.36449600   -0.02228500
Se   20.84593000    2.39260000   10.15374000      0.317858    0.28446200    0.08784000
Se    0.40490000   21.74996000   14.49726000     -0.095041    0.07920500   -1.66743200
Se   19.80579000    8.75315000   10.09378000      0.102090   -1.53120800   -0.17700300
Se   22.53024000    6.11558000   17.72540000      1.010571    0.63666500   -1.25663200
Se   20.87249000   12.08087000    7.04125000      1.189119   -0.95792300   -0.38238500
Se   19.85756000   10.59992000   17.38363000     -0.305100    0.17301900   -0.18804400
Se   18.89755000   16.88001000    7.92343000      0.117085    0.88603900    0.65068500
Se   18.87430000   17.47896000   15.35495000      0.335083   -0.58909100    0.12028700
Se    2.94362000   21.63885000   10.95812000      0.272383    0.17997200   -0.09835200
Se    2.35187000    2.21321000   14.83054000     -0.955211   -0.67715900   -0.36124600
Se    0.33608000    7.79174000    8.10923000     -0.912876    1.52629200   -1.77915300
Se    1.52808000    9.56306000   15.58031000      0.498742    0.67218400    1.02059000
Se    2.89483000   15.53918000    7.31258000      0.536608   -0.42623000   -0.06373000
Se    3.19491000   13.05558000   16.08963000     -0.479814    0.39759900    1.18888700
Se    0.83023000   16.75204000    7.84594000     -0.367281    0.12752400   -0.98184500
Se    3.07462000   20.33737000   13.85462000      0.480574    0.02245100   -0.54665600
Se    6.20822000    0.73975000    2.74058000     -0.107172   -0.92478800    0.26934300
Se    6.69834000   21.09748000    0.69053000      0.584951    0.96897400    0.52798500
Se    9.82686000    6.18951000    6.03927000      0.319637    0.21676800    0.18823900
Se    4.48710000    4.35124000   13.78462000      0.468323    0.35006200   -0.71446800
Se    4.42441000   13.13455000    5.24818000      0.416030   -0.20286100    0.23491400
Se   10.09621000   14.44365000   14.76120000     -0.136206   -0.83332000   -0.81726300
Se    6.96569000   18.12653000    4.08903000     -0.290439   -0.85876600    0.20321000
Se    8.21697000   17.06040000   14.93023000      0.117803    0.62634600   -0.06883400
Se   13.51813000    0.52073000    3.44277000      0.145103   -0.20817300    0.52230100
Se   13.34706000    0.51273000   16.09301000      0.114219   -0.06430400   -0.11816900
Se   13.78490000    9.80110000    4.42830000     -0.010280   -0.48924600    0.29392300
Se   11.28815000    6.03959000   13.77525000     -0.220255   -1.82537500    0.49556400
Se   14.39451000   12.17784000    5.61965000     -0.763161   -0.40451000    0.06531500
Se   13.73992000   14.87267000   15.60127000     -0.486553    1.11175500    0.03185600
Se   11.72761000   19.28451000    7.91871000      0.105616    0.29673600   -0.75927400
Se   11.68699000   18.90850000    0.55204000      0.670674    0.20640000    0.26759100
Se   19.48706000    1.63390000    6.64814000     -0.970633   -0.63843000    0.31108500
Se   20.04204000    1.43902000   15.88042000     -0.100286   -0.39353300    0.14984600
Se   20.03298000    4.89656000    7.24621000      0.526847    1.73187800    0.89243500
Se   19.20007000    6.56073000   15.72736000     -0.644953   -0.77388100    1.75141000
Se   19.09462000   12.78699000    3.61498000      0.250715   -0.11933900    0.91353200
Se   17.21830000   14.41111000   13.52668000      0.036029    0.15806300   -0.01763200
Se   16.90079000   17.97762000    4.47616000     -0.361047   -0.01931100   -0.38941500
Se   16.92167000   20.80317000   15.94888000      0.048127   -0.00271900   -0.66844800
Se    2.16674000    8.23142000    5.32357000     -0.481395    0.19575600   -0.40609400
Se    2.97927000    6.96192000   13.31278000      0.064967   -0.81035700    2.24687300
Se    1.06515000   12.25234000    4.60813000     -0.064329    0.17870600    0.41108300
Se    4.37446000   10.05577000   14.88500000     -0.010252   -0.31925200   -0.31283100
Se    5.57938000   14.48586000    8.00579000      0.118731    0.09077100    0.29370300
Se    3.61805000   16.63465000   17.01563000      0.145628    0.47621800   -0.09619600
Se    2.74112000   20.50403000    7.44075000      0.366871    0.69455300   -0.17371800
Se    6.09093000    0.21694000   14.67353000     -0.342586    0.13236500    0.01723500
Se    8.90657000    1.02381000    5.17752000     -0.380490   -0.73486600    1.05305100
Se    7.20038000    1.66919000   17.75478000      0.336693    0.45390600    0.13989000
Se   12.91539000   11.76681000    9.09014000     -0.014288    0.10812400    0.00831000
Se   10.02935000    9.86021000   17.61469000      0.322909   -0.76818600   -0.42719700
Se    8.18380000   14.32379000    8.25393000     -0.445900    0.19966700    0.29139200
Se   11.67524000   16.70635000   13.72577000     -0.205870    1.12767500   -0.46185000
Se   10.96181000   20.59053000    4.15996000     -0.011189    0.08008900    0.35178600
Se   10.38910000   17.68067000   17.18469000     -0.626310    0.00393600   -0.06858300
Se   10.28235000    3.67242000    5.59379000      0.127839   -0.11700900    0.31916600
Se   17.39005000    4.16853000   16.86479000     -0.306535   -0.59182800    0.66400100
Se   17.40651000    7.29948000    5.60300000      0.128805    0.32208400   -0.04744400
Se   17.15280000    8.59154000   12.55595000     -0.020153    0.27725100    0.45341900
Se   17.61448000   10.56899000    5.04300000      0.076979    0.21292300    0.02447600
Se   14.02275000   17.87092000   16.39698000      0.248095    0.85496200   -0.36591800
Se   15.80589000    2.88726000    4.46443000     -0.305709   -0.18379600   -0.09058800
Se   19.19491000    2.62053000   12.14293000      0.003378    0.37788500    0.24572300
Se   22.50621000    3.07869000    5.66763000     -0.078962    0.17776300    0.25680200
Se    1.74691000    4.47140000   15.84754000     -0.266088   -0.15450900   -0.30604700
Se   18.13395000   13.42844000    7.74829000     -0.677765   -0.30104800   -0.11778200
Se   22.40350000   13.08695000   13.16574000      0.062975   -0.22283800    0.47561400
Se   19.85039000   15.31264000    4.62373000     -0.074364    0.18909200    0.68137500
Se   19.64424000   19.82985000   13.68757000      0.593184   -0.16489900    0.48091400
Se   21.41466000   17.75910000    9.40615000      0.361174    0.84058700    0.23168600
Se   20.49580000   19.78553000   16.88067000      0.154292    0.35013100    0.31129100
Se    3.21269000    1.01847000    5.72802000      0.124922   -0.22238700   -0.51440800
Se    7.11639000    2.88381000   14.60454000     -1.277479   -0.62995700   -0.27930800
Se    1.86784000    7.33563000    2.43318000     -0.073660   -0.07454500   -0.12935700
Se    5.77159000    6.79288000   11.54155000     -0.073247    0.34984900   -0.66543800
Se    1.52258000   15.01462000    2.18686000     -0.323287   -0.07748400   -0.46648500
Se    5.86050000   15.29853000   14.67251000      0.969843   -0.29029200   -0.39508500
Se    4.57708000   18.09721000    3.08365000      0.289272   -1.04119700    0.22597300
Se    5.28746000   17.41097000   11.43755000     -0.631162    1.18622400    0.35992600
Se   10.10537000    1.45799000    2.75043000      0.252528   -1.06170100    0.49266600
Se   10.45255000    0.76370000   16.46990000      0.475056    0.46453100   -0.09869400
Se    9.87672000    8.32227000    2.80237000     -0.252230   -0.12735000   -0.32231400
Se    7.11430000    7.44579000   14.56413000     -0.143020   -0.47219500    0.66508700
Se   10.36642000   11.71519000    4.22094000      0.143522   -0.01224900    0.35667500
Se    9.56131000   11.36698000   12.15623000      0.869056    0.21779800   -0.01139300
Se    9.03088000   19.64041000    1.17996000     -0.095575    0.74582000    0.66474200
Se   16.67702000   17.98237000   12.41217000     -0.217760    0.07177800   -0.23731100
Se   14.05883000    3.92130000    5.73457000     -0.131107   -0.58369300    0.28646100
Se   15.92982000    0.53414000   15.79125000     -0.274296    0.80850900    0.36785000
Se   16.79473000    5.22604000    4.34594000     -0.059185    0.16906300   -0.02307900
Se   13.23704000    9.96615000   10.63002000     -0.126867   -0.17233400    0.75008100
Se   15.64642000   11.41610000    2.27324000     -0.159938   -0.25730700    0.79028000
Se   17.41736000   12.91281000   16.39667000     -0.697746    0.58819200   -0.19557200
Se   15.94001000   16.39665000    2.53001000      1.108983   -0.17432200    0.27605800
Se   14.49900000   21.96492000   12.22630000      0.417721    0.41424200    0.22758400
Se    0.05517000   20.25742000    6.58329000      0.593453   -0.46245500   -0.22537900
Se   20.52188000    0.85581000   13.55061000     -0.268306   -0.01481300    0.01203200
Se   21.17948000    6.48455000    4.37125000      0.222159    0.19638200   -0.35224800
Se   20.08170000    8.11055000   14.34314000      0.175971    1.20545000   -1.13342500
Se    0.19754000   14.25014000    6.05612000      0.814260   -0.32605200   -0.56189000
Se    1.61711000   14.42908000   14.36972000     -0.107400    0.22477800    0.37189900
Se   21.02600000   17.89355000    4.00012000      0.308298    0.21308100   -0.05039300
Se   21.05312000   21.35196000   10.27621000      1.246186   -0.50166700    0.28860600
Se    2.65202000    3.90174000    2.94981000      0.576066   -0.10084600    1.20906000
Se    1.77409000    3.81158000   10.83212000      0.048493   -0.11319000    0.49314200
Se   21.40720000   10.92358000    1.71104000      1.208871   -0.53740100   -2.08571700
Se    1.30143000    9.59547000   11.62328000     -0.103931   -0.41193700    0.00313400
Se    0.48238000   17.22335000   17.94829000      0.792111   -0.21821700    0.69245000
Se    4.03747000   16.16683000   13.54128000     -0.762801   -0.22215500   -0.79613000
Se    1.79785000   21.12184000    2.73273000      1.839174   -0.36535800    0.76085300
Se    5.27264000   20.23591000   14.88164000     -0.162115    0.13930500   -0.14520700
Se    6.54933000    3.51620000    4.24543000      0.697108   -0.20447900    0.44312400
Se    9.32424000    3.43036000   14.68303000      1.411784    0.93470400    0.61293200
Se    4.47846000    6.27435000    5.24980000     -0.299900   -1.14423200    0.44880800
Se    8.33273000   10.98574000   16.02319000     -0.504578    0.27721400   -0.75141300
Se    7.26171000   14.44919000    1.02482000     -0.349267   -0.00961400   -0.32370700
Se   11.56127000   14.53471000   11.10585000      0.329870   -0.04417500   -1.10861600
Se    6.82051000   20.76884000    6.29510000     -0.603752   -0.02709400   -0.10395100
Se   10.53088000   20.63001000   13.99055000      0.446817   -0.15029100   -0.30524300
Se   13.06608000    4.03593000    2.15220000     -0.814554   -0.34056500    0.57894500
Se   13.25801000    6.61674000   11.08919000      0.718567   -0.32188500   -0.96530500
Se   13.28825000    7.11314000    2.63876000      0.225259    0.38458300   -0.12920400
Se   11.53105000    9.65927000   14.36711000     -0.246047   -0.16524300   -0.29448400
Se    8.52772000   14.64542000    4.44105000     -0.211303   -0.22658600    0.40615500
Se   15.49262000   13.57618000   10.31084000     -0.304955   -0.09356800   -0.34071800
Se   14.97706000   20.46106000    3.66163000     -1.786126   -0.85689700    0.47780700
Se   14.03409000   20.07570000   13.77894000      1.256902   -0.75317700   -1.75791700
Se   18.64063000    6.02106000    1.17386000     -0.350206    0.34874800    0.99045200
Se   15.15459000    5.87224000   14.85746000      0.287588    1.08689700    0.03914700
Se   19.53098000    8.48622000    3.97366000     -0.105469   -0.33404000   -0.13358700
Se   19.82020000   13.83638000   10.43971000     -0.849208    0.26885100    0.04943300
Se   21.61554000   14.51900000    1.52802000      0.163200    0.53610200    0.32670100
Se   17.26751000   16.87658000   10.14178000      0.397384   -0.19654500    0.42475700
Se   17.49468000    0.42434000    3.63943000      0.281845    0.18524100    0.32581100
Se   16.53525000    1.29545000   10.87522000     -0.488565   -1.01161800   -0.90541000
