384
22.54784000 22.54784000 18.93360000
Ge    5.99638000    4.40733000    9.42004000     -0.651740    0.87543600   -1.51707500
Ge    4.34207000    7.63595000    3.10015000      1.036427    0.47632000   -0.68271800
Ge    2.35015000   11.94015000    7.03851000      0.009075    0.77175700   -0.46292900
Ge    7.04964000    8.77957000   16.57458000     -0.577931   -0.23532600    0.67968100
Ge    3.69854000   13.67328000   10.13713000      0.123106   -0.25657900    0.41005800
Ge    8.84604000   17.34538000    0.39222000      0.291908   -0.00977700   -0.31088800
Ge    6.75824000   18.20631000    7.97177000     -0.689772    0.19639000   -0.04953500
Ge    4.49673000    2.91954000   15.72183000      0.773554   -0.17059100    1.16175700
Ge    9.44469000    7.09655000    8.67643000     -0.168839    0.25041600    0.38563600
Ge   11.36375000    6.14966000    0.82833000      0.015230    0.11195400    0.13147100
Ge   12.09698000    8.49337000    9.21209000     -0.056983   -1.30485000   -0.99962900
Ge    9.78167000   11.82373000    0.19021000     -0.269113    1.14616500    0.49730000
Ge   11.19382000   17.12781000    8.96560000     -0.280677   -0.61352100    0.64610600
Ge   12.32090000   16.51680000    0.32596000     -1.016451   -0.94402200    0.42166500
Ge   10.09451000   21.71011000   11.47475000     -1.326947   -1.62259100   -0.37562300
Ge   13.34415000    0.69196000    1.08570000     -0.209913    0.61017200   -0.70763300
Ge   18.68147000    5.26611000    9.60097000      0.063583    0.32981700    0.76292200
Ge   17.71717000    7.36563000   18.37318000     -1.294111    0.79786200   -1.23041400
Ge   17.48948000   14.46855000   11.15651000      0.451451    0.62887900   -0.75260800
Ge   17.23253000   11.16658000   18.22565000     -0.040366   -1.26817900   -0.49640800
Ge   12.74015000   14.33374000    8.80018000     -0.594330    0.71419700    0.49364100
Ge   17.01428000   15.61058000   18.23047000      1.025804    0.01042200    0.39845500
Ge   15.48713000    3.46159000   11.31558000     -0.553653    1.04699500   -0.35447000
Ge   18.38240000    2.35900000   18.37143000      0.048113    0.88117700    0.08350100
Ge    0.67599000    6.01947000    9.49830000      1.819055   -0.36002800    0.58899000
Ge   20.14153000    3.63933000    4.95373000      0.767758    0.05584700   -0.54332400
Ge   22.16361000   10.56433000    9.18655000     -0.011989    0.27015900    0.34343400
Ge   20.11089000    8.92653000    0.32831000     -0.123916    0.89611100   -0.10384200
Ge   20.29348000   14.81814000    7.47903000     -0.097657   -0.75640500   -0.40836100
Ge    5.47897000   14.73031000   17.04529000     -1.346208    0.39127400    0.67383800
Ge   17.75825000   22.37713000    7.71419000      0.369445    0.25694700   -0.02127100
Ge    0.28761000   19.89481000    4.05302000     -1.307225   -2.04784500    1.43599500
Ge    3.40019000    7.86272000    7.42965000      0.872142   -0.68812300   -1.07728000
Ge    1.67545000    7.24477000    0.05590000      0.547559    1.49299300   -0.57262100
Ge   20.56538000   10.75632000    3.84102000      0.028854    0.33698700    0.83640900
Ge    4.57557000   12.50340000   14.20277000      0.074935   -0.51023000   -0.20845200
Ge    3.78370000   15.76233000    4.93400000      0.133002    0.62124100   -0.02473600
Ge    0.83365000   20.50242000    0.59484000      0.543845   -1.72976400   -0.16622100
Ge    3.07417000   18.01645000   10.30701000     -0.989098   -0.04031000    0.97620400
Ge    0.92978000    1.52671000   17.62080000     -0.056450    0.55655800    0.26952400
Ge   10.07663000    2.92457000    8.26446000      0.222269   -0.06763400   -0.36421500
Ge    6.68779000    5.44332000   16.50227000     -0.582255    0.42791500    0.02136300
Ge    8.59443000    8.13629000    5.00047000     -0.174849   -0.17135400   -0.63067700
Ge   10.95485000    6.65158000   16.14471000      0.041271    0.20461400    0.84087300
Ge    6.43480000   16.19036000    9.67502000      0.657959   -1.10979500   -0.04044300
Ge   10.67608000   14.73917000   17.05675000      0.171296    0.36550200    1.02968100
Ge   10.23271000   21.87126000    6.76070000     -0.194611    0.33097100   -0.07846600
Ge   10.86073000    1.52988000   13.96321000      0.778254   -0.53756700   -0.88083000
Ge   12.41704000    8.21438000    5.99337000     -0.046519   -0.49192000   -0.88283000
Ge   14.95736000    3.06588000   17.07873000      0.929187   -0.08713300   -0.04181900
Ge   15.98454000    9.19510000    6.29788000     -1.476789   -0.30614100   -0.24198400
Ge   15.12320000   13.03799000   15.78250000      1.162154   -0.45866200   -0.93822900
Ge   11.84245000   13.62888000    5.37901000      0.212712    0.16415300    0.02320600
Ge   15.59386000   20.12872000   17.94638000      0.045435   -0.31540600    0.52648900
Ge   14.44428000   20.81736000    8.76470000     -0.370283    0.37662600   -0.84393400
Ge   17.93257000   22.06246000   13.46107000      0.866440   -0.43244400    0.30745900
Ge   22.13388000    4.04816000    8.35869000     -0.090983   -1.21107000   -0.76572100
Ge   20.42937000    5.35704000   13.99207000      0.195380   -0.06266700   -0.34522100
Ge   18.74465000   10.76904000    7.31190000      0.349754    0.99252100   -0.33751900
Ge   22.20514000   15.00312000   16.47573000      1.006929   -0.36996200   -0.00105700
Ge   17.96564000   16.27521000    5.77854000     -1.072292   -0.55900600    0.44965200
Ge   16.38910000   18.37595000   15.11968000      0.187134   -0.33638800    0.45692400
Ge   21.65646000    0.16724000    6.46142000      0.176253   -0.36099600   -0.13251800
Ge   18.84310000   21.91018000   17.56272000      0.013603    0.24500500   -0.32994300
Ge    6.89472000    1.24131000    7.53051000     -0.055614   -1.20956900   -0.04345700
Ge    3.29484000    2.52770000   12.30248000      0.144336    0.28709700    0.64493200
Ge   22.44155000   10.21351000    5.58092000     -0.248402    0.83703300    0.26369600
Ge    3.13782000    7.72395000   11.16016000     -0.618612    0.35994700   -0.95160500
Ge   22.47317000   15.88883000    4.10947000      0.737670    0.89027000   -0.22299200
Ge    3.21517000   18.09701000   14.87192000     -0.602792   -0.90662700    1.69803400
Ge    4.82641000   21.50476000    9.21822000     -0.660460    0.08787200    0.03970100
Ge    8.97724000   19.98110000   16.18411000      0.426276   -0.63751100    0.21831500
Ge    5.50776000    4.48846000    2.25954000     -0.608576    0.79284800   -0.81287900
Ge    9.52973000    3.25305000   17.58380000     -0.193237   -0.11178400   -0.33925400
Ge    7.03591000    5.67772000    5.46152000     -0.389004   -0.23270600   -0.69673500
Ge    8.61918000    9.47325000   13.77620000      0.593432    0.58802800   -0.43987300
Ge    5.49943000   14.32523000    3.03203000      0.314864    0.39032700    0.12594400
Ge   10.81632000   11.72276000   15.87113000      0.674115   -0.17672800   -0.42564200
Ge    7.73098000   21.57148000    3.84423000     -0.153629    0.41170800    0.28053500
Ge    9.27522000   16.21552000   12.76954000      0.131280    0.35866500   -0.25429500
Ge   12.21348000    2.09257000    5.12805000      0.591384    0.04677500    0.19773400
Ge   13.32185000    4.37981000   15.14432000     -0.567025   -0.54962000   -0.39639700
Ge   17.92778000    3.82992000    6.52917000     -0.856668   -0.57868800    0.19309900
Ge   15.06621000    9.82481000   14.70272000     -0.115529   -0.13635900    0.81676700
Ge   14.62606000   13.69344000    3.39249000      0.254205   -0.31370300   -0.15496300
Ge   13.50676000   15.92500000   11.94718000     -0.268626   -0.94386300    0.37692500
Ge    9.83111000   18.47053000    4.75676000      0.072161   -0.35741300   -0.19702900
Ge   12.70362000   20.09897000   15.61878000     -1.821114    0.38346400    1.83603900
Ge    0.74685000    5.98149000    5.84629000      0.262877    0.17481300    0.25671300
Ge   22.04747000    4.09647000   12.00318000      0.049499   -0.26573700    0.32868200
Ge   20.23706000    8.22501000    7.66137000      0.256376   -0.16190400   -0.13733700
Ge   17.18456000   10.97914000   12.03381000      0.204051    0.86001800   -0.03512900
Ge   20.99137000   16.81320000    0.34698000     -0.254265   -0.31554600    0.18356100
Ge   19.31871000   15.47709000   13.96755000     -0.183347   -0.45190700    1.28206500
Ge   18.79140000   21.06039000    4.97995000     -0.264617   -0.46245200   -0.01748900
Ge   21.91329000   20.31750000   12.55193000     -0.349861    0.70267700    0.37783700
Ge    3.33768000    1.25722000    3.05864000      0.041029    0.87499900   -0.40575300
Ge    5.69994000    1.03085000   12.06060000      0.247176   -0.36084500    0.13957000
Ge    5.80126000    9.44372000    4.28705000     -0.192887    0.07070800   -0.13481300
Ge    7.06897000    5.06011000   12.72666000      0.026775   -0.26121600    0.97287200
Ge    5.46501000   12.22036000    0.77587000      0.245580   -0.78999700   -0.45275800
Ge    4.39614000   10.18296000   11.94879000     -0.461462    0.27213300    0.37915700
Ge    2.94998000    0.68916000    8.10289000     -0.394389   -0.78315000    0.84809700
Ge    7.36785000   19.19405000   13.00756000     -0.276774   -0.68138800    0.57195700
Ge    9.00113000    3.56038000    2.23221000      0.853409    1.24835500    1.29872700
Ge    9.81511000    4.49608000   11.81776000      0.160706    0.68261600   -0.33904400
Ge   11.93193000    9.39998000    2.05933000      0.643355   -1.01556700    0.13867700
Ge   11.70508000    7.83824000   12.33421000     -0.888165    1.69694100   -0.49246700
Ge    9.31189000   13.45120000    2.41918000     -0.555581    0.34374700    0.33868600
Ge    8.05879000   13.15012000   10.63960000      0.380323    0.21003800    0.16785700
Ge   11.18949000   21.54330000    1.58644000     -0.588863   -0.48842000    0.47065900
Ge   11.91988000   19.01759000   12.32880000     -0.485324   -0.17650800    0.67915400
Ge   21.97394000   21.84708000   16.64928000      0.426638    0.22817100    0.48977500
Ge   13.58376000    0.93905000    9.51004000     -0.034088    0.63834700    0.27994800
Ge   16.09160000    6.76979000    2.41017000      0.032074   -0.08435300   -0.60507400
Ge   15.81368000    6.91606000   11.61111000      0.590243   -1.14736800   -0.39369500
Ge   18.05020000   12.41797000    1.48610000     -0.333897   -0.06689400   -0.53381300
Ge   15.24538000   16.07235000    7.52981000      0.335057    0.15425100   -0.42259000
Ge   16.70558000   20.99989000    2.32010000      1.102837    1.43604400   -1.42134200
Ge   16.15388000   20.20759000   11.28996000      0.047609   -0.26137300    0.62294000
Ge   19.85817000    1.41542000    3.06681000     -0.316354   -0.58572000   -0.24936400
Ge    0.47326000    1.18960000   11.24573000      0.037649   -0.00158800   -0.37549900
Ge   21.81574000    7.89185000    2.18634000     -0.314495   -0.45404200    0.42914600
Ge   22.49660000    8.84388000   13.76485000      0.533928   -0.40498700    0.22711800
Ge   20.61470000   12.73286000   18.52845000      0.087055   -0.07626100    0.34378400
Ge   22.34538000   15.04459000    9.42536000      0.352385    0.66796600    0.27970100
Ge    3.93856000   21.27330000    5.17052000      0.049099   -0.27777100    0.46003100
Ge   19.57952000   18.42579000   11.35295000     -0.604371   -0.44642000    0.15339000
Se   20.21984000   22.48010000    0.74877000      0.731759    0.78554800    0.40266600
Se    0.73651000    1.41214000    8.76894000     -0.297831   -0.54222500   -0.97915900
Se    4.27097000   11.49521000    3.55855000     -0.308840   -0.63078200   -0.14790300
Se    0.50179000    6.43017000   14.43291000      0.032370    0.59089000   -1.23293700
Se    0.43078000   12.87085000   17.75826000     -0.263843    0.49277100   -0.09666900
Se    1.08550000   12.80800000    9.29148000      0.275529   -0.53661700   -0.33618200
Se    1.99326000   17.77055000    4.55114000     -0.305704   -0.32657600   -0.17337300
Se    1.91978000   15.62609000   10.85621000      0.669389    0.51482500    0.36231700
Se    4.14529000    1.96947000    0.71249000      0.156296   -0.04583400   -0.25161300
Se    7.31141000    3.30981000   10.98415000      0.878390   -1.12701500    1.17324100
Se    6.99228000    6.80320000    2.74971000     -0.292143   -0.18131200    0.54859200
Se    9.26575000    7.32289000   11.29050000      0.609157    0.18924500    0.96520400
Se    7.54254000   10.29654000    0.86239000     -0.218655    0.65974100    0.88265600
Se    6.67533000   11.34670000   12.93888000     -0.489019   -0.29553600    0.43694000
Se    5.09106000   20.23646000    2.58888000      0.026500    1.30862000   -0.43008400
Se    8.77593000   18.44615000   11.16209000      1.156749   -0.77789500   -0.10801200
Se   11.32038000    2.71815000    1.03490000      0.063845   -0.23176300   -0.83431600
Se   13.60121000    1.77810000   13.64141000     -0.755732    0.20763500    0.74473300
Se   12.07166000    8.40646000   18.50595000     -0.291072    0.11818300    0.58217000
Se    9.35528000   10.51316000    9.02999000     -0.099210   -0.07699600    1.47000700
Se   12.48075000   15.31691000    2.78834000      1.725296   -0.56557400    0.54333000
Se   11.97455000   10.43548000    7.19805000      0.037467    0.23288100    0.22850200
Se   13.99996000   18.79073000    1.66436000     -0.155376    0.20869200    0.30672500
Se   13.72393000   16.81971000    9.53200000     -0.648729    0.33762600   -0.30778600
Se   19.00708000    3.80242000    1.80559000     -0.641003   -1.26273400   -0.11840800
Se   16.88284000    1.83383000   13.18992000      0.115270    0.36957700    0.30974100
Se   15.01383000    7.30109000   18.41162000      1.210440   -0.21677100    0.55010400
Se   18.17860000    5.61232000   12.75139000     -0.402790   -0.65065200   -0.95141400
Se   17.92804000    9.61870000    1.51697000      0.349192   -0.25280000   -0.40655300
Se   16.10762000   13.98292000    5.63519000      0.637215    0.26755700    0.13982700
Se   20.98877000   19.83609000    0.54314000     -1.045843   -0.48001800   -0.16785100
Se   16.80374000   19.87931000    8.86146000      1.379013   -0.01451000   -0.14907100
Se    0.85190000    0.92689000    2.77996000     -0.648610    0.13849800   -0.15675200
Se    6.82604000    6.77659000    9.19469000      0.085824    0.17604600    0.16228200
Se    7.54565000   11.30041000    3.08851000      0.088380   -0.31682500   -0.42578700
Se    4.71931000   11.11660000    9.23732000      0.450614    0.03358800    0.17728200
Se    3.67756000   14.05912000    1.29571000      0.190894    0.07182300   -0.34389300
Se    2.84706000   12.28936000   12.42141000      0.570468   -0.24202400   -0.43664000
Se    2.40741000   22.19133000   18.79892000      0.464874    0.79089100   -0.41661100
Se    6.42447000   19.95359000   10.09952000      0.060338   -0.30071600    0.07336900
Se   12.55640000    5.87831000    4.58478000     -0.178035    0.70166300   -0.31816100
Se    7.66782000    3.52460000    7.63476000      0.024843    1.07478700   -0.21282200
Se   11.95012000   11.76228000    1.79163000      0.238526    0.46595100    0.36014300
Se    7.21306000   10.80379000   10.43911000      0.336643   -0.47515900   -0.53882900
Se   10.40565000   16.01078000    2.19415000     -2.174386    0.15692900   -0.31454100
Se   12.57577000   13.54878000   13.89231000     -0.104744   -0.20193300    0.17739000
Se    9.96279000   21.60702000   17.99395000     -0.335944   -0.47672400    0.27530400
Se    7.56185000   21.71267000   12.72908000      0.564307    1.24443700   -0.72104300
Se   14.70879000    5.06770000    0.69199000      1.193485    0.81864700   -0.75211400
Se   16.73770000    6.67161000    8.70314000     -0.621320   -0.79965300    0.76642000
Se   14.65919000   10.60124000    0.16466000      0.921819    0.77863300    0.20032500
Se   14.71987000   12.26968000   13.22357000      0.812753   -0.18550800    0.67231700
Se   18.20567000   15.67908000    1.92583000     -0.300173    0.04892100   -0.77480900
Se   16.02110000   10.97918000    9.85049000     -0.231101    0.83818200   -0.28848700
Se   16.83843000   22.52421000    0.23458000     -0.658490   -1.20204200   -0.08108300
Se   15.59159000   18.95430000    7.09904000     -0.659665   -0.33054600   -0.55643000
Se   22.43126000    3.13064000    2.55349000     -0.122932    0.59055000   -0.24423500
Se   21.23395000    6.07663000   10.68980000     -0.445970    0.13201100    0.98758700
Se   21.21709000    5.20287000    0.33518000     -0.230665   -0.18067400    0.80344300
Se   20.99611000   10.67332000   11.78117000      1.058498    0.52059400    0.82510700
Se   19.81333000   15.30918000   17.34809000     -0.019399   -0.12423100    0.52410200
Se   20.70267000   16.23784000   12.34418000      0.275222    0.21548100   -1.33505300
Se   20.94560000   21.66158000    3.90367000     -0.196209    0.94759400    0.42585700
Se   18.45147000   21.33608000   11.11127000     -0.495975   -0.08859000   -0.57677500
Se    3.65426000    5.55469000    8.30252000     -0.351666    0.39687200   -0.02572800
Se   21.33754000    2.27964000    0.21206000      0.331225   -0.00350100   -0.27108800
Se    2.77947000    9.87477000    8.56691000     -1.032552    0.40771900    0.84366400
Se    1.02481000    9.68444000   17.97235000     -0.091364   -0.34921700   -0.41267700
Se    3.74979000   18.06327000    7.98934000      0.705302   -0.43845100   -0.91972500
Se    0.46389000   17.89533000   14.99452000      0.693922   -0.18300600    1.69434200
Se    0.57191000   18.17380000   12.80066000      0.193175    0.32923300   -2.08944500
Se    2.10297000   21.02734000   16.66578000     -0.209753    0.07290800    0.21514900
Se    3.13325000    4.07773000    5.47757000     -0.212899    1.11895300   -0.97212300
Se    5.46270000    6.88458000   18.49208000      0.691733   -0.40210700   -0.36429000
Se    5.71867000    8.64736000    6.71955000      0.123626    0.22358300    0.07490700
Se    3.54090000    7.45844000   17.35316000     -0.460601   -0.27765600   -0.12836600
Se    5.93914000   14.04296000   11.61372000      0.356630    0.82091400   -0.90802800
Se    6.63141000   17.52562000   18.43085000     -0.664623   -0.04392400   -0.23425700
Se    8.84721000   19.54231000    7.04375000      0.562512    0.08083100   -0.19209200
Se    6.61424000   19.86700000   17.63393000     -0.611420   -0.84677300   -0.51690400
Se   10.74292000    1.32235000   11.31315000      0.515728    1.98632800    0.41226300
Se   12.03521000    4.39364000   17.57947000     -0.012026    0.98070800   -0.63251800
Se   13.80332000    7.17549000    7.64379000     -0.299123    0.47227800    0.29907700
Se   13.82519000   11.32378000   16.60862000     -0.550076   -1.68626000    0.10275200
Se   10.59023000   15.32806000    7.05432000      0.284176   -0.12763300    0.96531400
Se   14.59555000   16.31204000   18.34418000      0.997187   -0.60388300   -0.35875100
Se   12.70235000    0.23536000    7.07168000     -0.657841    0.15557600   -0.47098200
Se   13.25475000   21.42125000   18.38229000      0.408172    0.59064200   -0.36777100
Se   13.22203000    3.42127000   10.25993000      0.542686   -0.66560800   -0.21231400
Se   21.92102000    3.78034000   16.08598000      0.235874   -0.65317000   -0.32269600
Se   19.40085000   11.11714000   10.07468000     -1.087516    0.85804100    0.35910200
Se   17.01246000    9.28343000   16.55977000     -0.258943    0.00222600   -0.63440400
Se   13.59363000   15.84995000    5.50184000      0.426959    0.74410600    0.80992100
Se   20.88741000   13.42337000   14.99778000     -1.211352    0.17281500   -0.92283900
Se   19.90555000   20.48021000    7.48535000      0.377454    0.77396700   -0.46256600
Se   18.37881000   19.42683000    2.55062000      0.997512   -0.68705600    0.11296500
Se    4.52861000    2.31531000    8.88088000      0.368737    0.07119400    0.56078200
Se    2.71342000    3.61323000   18.69259000     -0.429923   -0.71439200   -0.12655300
Se    9.26972000   10.12006000    6.73922000     -0.345618   -0.82218000   -0.46432500
Se    4.60985000    9.37723000    1.17440000      0.012286    0.58687500    0.19544100
Se    6.53162000   16.54123000    5.94640000     -0.243462    0.33420300   -0.82253100
Se    4.65943000   11.09680000   17.39472000      0.043331    0.32936600    0.12545000
Se    0.55872000   19.71742000    9.86302000     -0.281664   -0.21149300    0.16601800
Se    1.49432000   17.71925000    1.30405000     -0.384130    0.35932100   -0.59245500
Se    8.92745000   22.17608000    8.98178000     -0.427260    0.69493500   -0.28871800
Se    7.29419000    3.02232000    0.78440000     -1.416726   -0.26827800   -1.29155000
Se   10.78996000    5.12802000    9.38192000     -0.214532   -0.63634200   -0.27015300
Se    8.72796000    5.96719000   17.69507000      0.460477   -0.13594400    0.15153000
Se    8.64787000   12.40096000    6.14997000      0.383531    0.99804400   -1.51501400
Se    8.44440000   13.78694000   17.46315000      0.061539    0.00798600    0.32806600
Se   12.07826000   20.65425000    9.99722000     -0.476342   -0.22504500    0.59566700
Se   12.19174000   13.26038000   18.62242000     -0.916062    0.20243500   -0.36539500
Se   15.24795000    0.94480000    7.40279000      0.711136   -0.31836800    0.37731500
Se   15.21642000    2.23278000    0.59690000      0.264363    0.28879300   -0.32113300
Se   16.93968000    3.65462000    8.91160000     -0.432150   -0.07483900   -0.21733000
Se   13.56872000    7.70923000   15.65661000      0.485995    0.06472100   -0.43215200
Se   16.98555000    9.06189000    8.63489000      0.341698   -0.16277400    0.37818200
Se   15.35288000   14.05855000    0.80894000     -0.279665    0.55671900   -0.56371600
Se   12.42562000   18.04695000    5.52934000     -0.202198    0.22830200   -0.38189100
Se   17.46755000   18.44393000   17.90698000     -0.098928   -0.25704600    0.01508400
Se   20.89240000    2.44378000   10.14589000      0.024862    0.21355200    0.20805200
Se    0.36072000   21.74858000   14.43949000     -0.133473    0.18810600   -1.30358600
Se   19.85810000    8.71293000   10.08688000     -0.092934   -1.17444900   -0.28184100
Se    0.02542000    6.09511000   17.70626000      0.268323    0.07434100   -0.77254000
Se   20.88285000   12.08543000    7.06510000      0.993860   -0.99693700   -0.44254800
Se   19.85127000   10.60759000   17.33926000     -0.244626    0.12044600    0.19632700
Se   18.91095000   16.88200000    7.95150000     -0.137594    0.77143100    0.22730100
Se   18.93641000   17.50514000   15.32914000      0.222713   -0.50326000   -0.05476200
Se    2.99260000   21.60221000   10.92950000      0.202316    0.27677800    0.12833000
Se    2.33601000    2.23601000   14.85456000     -1.088861   -0.84389800   -0.51493100
Se    0.33947000    7.84825000    8.13216000     -0.849774    0.94551200   -1.44328600
Se    1.57777000    9.57460000   15.56870000      0.269959    0.52651200    0.84416700
Se    2.93660000   15.54951000    7.35124000      0.304559   -0.40991200   -0.03337300
Se    3.16827000   13.00604000   16.12041000     -0.111777    0.13663600    0.67905700
Se    0.83119000   16.74512000    7.82693000     -0.363864   -0.12907400   -0.68904400
Se    3.06421000   20.32975000   13.84531000     -0.089322    0.08658500   -0.75826300
Se    6.11473000    0.74627000    2.70231000      0.311102   -1.12263300    0.38788100
Se    6.71397000   21.11898000    0.68758000      0.350398    0.65050000    0.31079000
Se    9.81388000    6.11488000    6.06273000      0.101295    0.48783000   -0.01066600
Se    4.49401000    4.40120000   13.78846000      0.246692    0.21178500   -0.96399400
Se    4.47277000   13.20329000    5.26492000      0.268191   -0.47943600    0.44624700
Se   10.17626000   14.40947000   14.74345000     -0.223315   -0.66389900   -0.61322200
Se    6.96718000   18.13695000    4.07596000     -0.210275   -1.00737100    0.30285800
Se    8.25618000   17.04601000   14.95112000      0.094610    0.63877000   -0.04869300
Se   13.46132000    0.52908000    3.43302000      0.326811   -0.38328500    0.74734300
Se   13.34696000    0.51992000   16.14723000      0.026520   -0.13226900   -0.17583200
Se   13.77822000    9.73585000    4.45534000      0.233235   -0.27511400    0.08055600
Se   11.30583000    6.04381000   13.73834000     -0.298947   -2.31851200    0.73498400
Se   14.40349000   12.15993000    5.61945000     -0.732970   -0.27247700    0.02684100
Se   13.72656000   14.90117000   15.62623000     -0.382051    0.62944100   -0.09163400
Se   11.74438000   19.30218000    7.87669000      0.130410    0.19853800   -0.64726400
Se   11.69747000   18.89543000    0.52848000      0.720053    0.53468000    0.35108500
Se   19.50840000    1.62253000    6.64506000     -1.092487   -0.43365600    0.33921300
Se   20.10136000    1.41354000   15.87970000     -0.226313   -0.22315500    0.25151400
Se   20.03879000    4.97100000    7.28497000      0.251633    1.43423500    0.61672200
Se   19.23168000    6.55616000   15.75091000     -0.608840   -0.34269800    1.61168200
Se   19.06219000   12.82918000    3.59195000      0.404396   -0.34680600    0.78948900
Se   17.21674000   14.41163000   13.52762000     -0.018652    0.11356200   -0.03436900
Se   16.91746000   17.92353000    4.45628000     -0.580530    0.42033200   -0.57457700
Se   16.93109000   20.83929000   15.90181000     -0.265792   -0.22784100   -0.24289600
Se    2.14774000    8.22193000    5.28631000     -0.210332    0.19844500   -0.05474400
Se    3.00759000    6.99323000   13.33431000      0.098342   -0.38514300    1.28067500
Se    1.10605000   12.26339000    4.52621000     -0.224907    0.08821800    0.61637500
Se    4.38216000    9.97009000   14.86418000      0.068429   -0.01207600   -0.17272300
Se    5.53792000   14.48387000    8.02074000      0.367059    0.15795500    0.26426700
Se    3.64312000   16.62078000   17.02159000      0.066435    0.48346400   -0.10708500
Se    2.78802000   20.46570000    7.47118000      0.349392    0.76361200   -0.12941000
Se    6.11502000    0.23172000   14.67797000     -0.324796    0.37272400   -0.06000700
Se    8.92512000    1.03784000    5.23783000     -0.421738   -0.82851300    0.79701700
Se    7.23105000    1.67396000   17.73198000      0.337605    0.46404200    0.17704900
Se   12.86123000   11.73228000    9.05995000      0.124750    0.29652400    0.08023400
Se    9.93927000    9.86497000   17.60334000      0.601099   -1.20238100   -0.40622700
Se    8.21402000   14.35702000    8.22393000     -0.547204    0.28803500    0.38109500
Se   11.67520000   16.71284000   13.69161000     -0.215399    1.30265900   -0.21300500
Se   10.96529000   20.57719000    4.17503000     -0.041553    0.28019300    0.24066000
Se   10.38372000   17.70398000   17.25091000     -0.599145    0.12136900   -0.50789700
Se   10.29614000    3.67012000    5.52846000     -0.133032   -0.11824500    0.47863300
Se   17.39588000    4.17460000   16.82906000     -0.301291   -0.63146800    0.72325100
Se   17.43460000    7.35799000    5.61669000      0.262556   -0.17327600   -0.12381700
Se   17.18288000    8.64781000   12.59651000     -0.000890    0.15135300    0.49933800
Se   17.58494000   10.51353000    5.03319000      0.410433    0.52234900   -0.09599800
Se   14.03792000   17.80646000   16.37858000      0.116137    1.18962700   -0.46895800
Se   15.77270000    2.92141000    4.46491000     -0.282780   -0.12087700   -0.14598600
Se   19.15235000    2.61361000   12.14899000      0.089643    0.41373100    0.26336100
Se   22.50300000    3.13382000    5.67360000     -0.052282   -0.06975700    0.31537300
Se    1.77276000    4.44433000   15.82897000     -0.450152   -0.04643900   -0.24863300
Se   18.10659000   13.44887000    7.69011000     -0.654228   -0.40937700   -0.03697400
Se   22.40764000   13.10739000   13.17934000      0.082636   -0.22077000    0.44853500
Se   19.80812000   15.35466000    4.65485000      0.360697   -0.19762400    0.32679400
Se   19.70929000   19.84875000   13.67541000      0.226554   -0.22205500    0.74077600
Se   21.39109000   17.75863000    9.42998000      0.471297    0.80584200    0.14580600
Se   20.51146000   19.77786000   16.95257000      0.096160    0.25263600    0.20060300
Se    3.22527000    1.02827000    5.79070000      0.156524   -0.11701400   -1.10289400
Se    7.10251000    2.95835000   14.65605000     -1.008104   -0.67623300   -0.43627300
Se    1.86156000    7.32431000    2.48977000     -0.278068   -0.08881400   -0.43849000
Se    5.78811000    6.78376000   11.57694000     -0.513881    0.74450500   -0.87821700
Se    1.52339000   14.97662000    2.11198000     -0.481743    0.36967700    0.01198000
Se    5.85915000   15.30771000   14.70930000      0.933024   -0.27272300   -0.77880100
Se    4.59627000   18.07923000    3.11211000      0.239934   -0.76845600    0.22195900
Se    5.29949000   17.43419000   11.47394000     -0.416306    1.10928700    0.23952700
Se   10.07661000    1.43653000    2.70762000      0.222422   -1.08966200    0.46987600
Se   10.42541000    0.78243000   16.47946000      0.462809    0.38595500   -0.03686400
Se    9.92411000    8.37876000    2.83301000     -0.449832   -0.36482900   -0.31704900
Se    7.13898000    7.35390000   14.58847000     -0.144905   -0.46831800    0.52691900
Se   10.48436000   11.75176000    4.26403000     -0.224442   -0.23949400   -0.10348300
Se    9.61152000   11.36431000   12.20282000      0.635071    0.13096700    0.01425500
Se    9.01090000   19.68945000    1.13663000     -0.205377    0.56879300    0.75109700
Se   16.67565000   18.02520000   12.43993000     -0.181401    0.08351100   -0.35804200
Se   14.05262000    3.94900000    5.76886000     -0.336549   -0.68675300    0.21567600
Se   15.89391000    0.57690000   15.80814000     -0.161320    0.78423700    0.39939700
Se   16.79248000    5.19971000    4.34083000     -0.082516    0.21824800    0.06079000
Se   13.22189000   10.00865000   10.66231000      0.012669    0.01379200    0.97439900
Se   15.68837000   11.41658000    2.28457000     -0.220794   -0.10126600    0.63420100
Se   17.47209000   12.86040000   16.42684000     -0.791214    0.77208300   -0.48456300
Se   16.00003000   16.42005000    2.49108000      0.583302   -0.15101600    0.46805600
Se   14.48954000   21.92072000   12.21962000      0.408833    0.70434600    0.14944600
Se    0.07321000   20.16946000    6.57671000      0.368579   -0.15164400    0.07221600
Se   20.54715000    0.88709000   13.58373000     -0.180798   -0.18066800   -0.33384600
Se   21.21304000    6.41621000    4.36913000      0.057568    0.29086300   -0.40498000
Se   20.09169000    8.14699000   14.33269000     -0.077900    0.91201500   -0.70086400
Se    0.16513000   14.29049000    6.07432000      0.930519   -0.39813200   -0.66830100
Se    1.61650000   14.39692000   14.35102000     -0.016609    0.28908800    0.46132600
Se   20.96520000   17.90813000    3.96871000      0.462128    0.35481000    0.03647000
Se   21.02611000   21.31813000   10.28900000      1.235734   -0.54836100    0.28175400
Se    2.61336000    3.87578000    2.92642000      0.548037   -0.06253700    1.16477200
Se    1.75862000    3.77515000   10.74881000      0.209270   -0.09262400    0.76655500
Se   21.46360000   10.87176000    1.68509000      0.790510   -0.49882600   -1.28279500
Se    1.26456000    9.58226000   11.62731000      0.062376   -0.44428000    0.06420300
Se    0.52850000   17.17069000   17.94554000      0.463881   -0.10521000    0.73438800
Se    4.03867000   16.16349000   13.51971000     -0.639107   -0.31241400   -0.65786900
Se    1.78151000   21.15717000    2.79145000      1.470610   -0.68602800    0.46751200
Se    5.22203000   20.25434000   14.79572000      0.231119   -0.15376200    0.15304900
Se    6.47280000    3.52832000    4.17260000      1.033857   -0.75774900    0.94842000
Se    9.32256000    3.45700000   14.76747000      1.463283    0.68053100    0.40739200
Se    4.49562000    6.27220000    5.23502000     -0.256103   -1.16851400    0.48471000
Se    8.31536000   11.00401000   16.00553000     -0.679816    0.29540100   -0.78289400
Se    7.23179000   14.42195000    1.05960000     -0.358413    0.03678400   -0.38528300
Se   11.52540000   14.54256000   11.16729000      0.515171   -0.12470200   -1.40790000
Se    6.78114000   20.76522000    6.31064000     -0.553719   -0.01753100   -0.12194900
Se   10.46239000   20.59789000   13.95249000      0.635103   -0.17436800   -0.11147400
Se   13.06608000    4.02171000    2.18223000     -0.848094   -0.40486400    0.61320700
Se   13.31265000    6.64308000   11.04210000      0.247924    0.15320700   -0.52078000
Se   13.30250000    7.15579000    2.60172000      0.160143    0.08065000    0.22606800
Se   11.56183000    9.65279000   14.39231000     -0.350069   -0.11678000   -0.27064700
Se    8.55762000   14.65055000    4.44245000     -0.246435   -0.32432200    0.24078300
Se   15.43249000   13.61997000   10.34547000     -0.294731   -0.29063400   -0.35672800
Se   15.01111000   20.49704000    3.67070000     -1.803401   -0.79990900    0.48167900
Se   14.00861000   20.05256000   13.76205000      1.284329   -0.94303900   -1.70870000
Se   18.67612000    6.02671000    1.17531000     -0.445054    0.26324500    1.06946800
Se   15.18613000    5.90208000   14.88512000     -0.099651    0.76278200   -0.08250500
Se   19.48843000    8.50361000    3.99738000      0.108716   -0.42189000   -0.17115000
Se   19.79800000   13.85385000   10.34688000     -0.867071    0.16807100    0.08729600
Se   21.65332000   14.50102000    1.46471000      0.004727    0.42894500    0.41548500
Se   17.31154000   16.91407000   10.06646000      0.454808   -0.40152400    0.51501400
Se   17.51586000    0.37354000    3.63802000      0.172140    0.60544100    0.40616200
Se   16.55662000    1.26584000   10.87089000     -0.705552   -0.33548900   -0.47499900
