384
22.54784000 22.54784000 18.93360000
Ge    6.02355000    4.45330000    9.38834000     -1.102923    0.36384000   -1.54531100
Ge    4.27552000    7.66272000    3.09736000      1.230439    0.54875400   -0.34502800
Ge    2.30132000   11.93882000    7.04939000      0.130742    0.55833400   -0.42085900
Ge    7.07409000    8.75886000   16.52067000     -0.657074   -0.20874800    0.83741000
Ge    3.65143000   13.70536000   10.16835000      0.070053   -0.33704700    0.47694000
Ge    8.84082000   17.36711000    0.33529000      0.246985   -0.09462200    0.20411800
Ge    6.78608000   18.23343000    7.98851000     -0.711517    0.18344600   -0.20533300
Ge    4.49625000    2.95262000   15.69039000      0.689481   -0.11279600    1.24156000
Ge    9.38555000    7.09040000    8.64865000      0.178192    0.13565800    0.45460300
Ge   11.36973000    6.21896000    0.88721000     -0.047675    0.03025100    0.07244900
Ge   12.12424000    8.51216000    9.27067000     -0.211762   -1.49768400   -0.95866500
Ge    9.83241000   11.81565000    0.18376000     -0.361838    1.15711100    0.53749200
Ge   11.14899000   17.17330000    8.92818000     -0.009940   -0.62269500    0.74409100
Ge   12.34078000   16.57079000    0.35688000     -0.615174   -1.31230100    0.32998800
Ge   10.11154000   21.66079000   11.50455000     -1.237189   -1.03071600   -0.61419300
Ge   13.30794000    0.65941000    1.08627000      0.124179    1.17677100   -0.83179900
Ge   18.66241000    5.23527000    9.60887000      0.483068    0.75838700    0.83078400
Ge   17.74389000    7.38943000   18.36129000     -1.353046    0.55852700   -0.99609000
Ge   17.47222000   14.46889000   11.13857000      0.315077    0.77311700   -0.82623300
Ge   17.21008000   11.17070000   18.20862000     -0.035327   -1.44546700   -0.24141900
Ge   12.76131000   14.25610000    8.85615000     -0.566743    1.10423200    0.56959800
Ge   17.01819000   15.58356000   18.21703000      1.134043    0.02387600    0.38196400
Ge   15.41607000    3.48907000   11.37343000     -0.142507    0.37754200   -0.44055600
Ge   18.41612000    2.35766000   18.36346000     -0.190732    0.93860700    0.05598800
Ge    0.66764000    5.99310000    9.51613000      1.287108    0.11587900    0.21765700
Ge   20.17425000    3.65244000    4.94541000      0.589440    0.27938600   -0.55632700
Ge   22.12716000   10.62136000    9.20242000     -0.050720    0.04607500    0.17623300
Ge   20.03933000    8.93714000    0.34720000      0.401771    0.77889600   -0.40922300
Ge   20.31357000   14.80516000    7.48072000     -0.224921   -0.72309700   -0.40533000
Ge    5.52549000   14.73065000   17.05843000     -1.298604    0.38160100    0.71590600
Ge   17.73923000   22.38895000    7.64104000      0.303204    0.00860500    0.00072400
Ge    0.26819000   19.87120000    4.18459000     -0.967324   -1.82298200    0.32790100
Ge    3.43586000    7.84366000    7.42043000      0.745896   -0.48961200   -1.19120000
Ge    1.63879000    7.23995000    0.06930000      0.702514    1.42952500   -0.34049600
Ge   20.52096000   10.75007000    3.85470000      0.417504    0.61218000    0.08407300
Ge    4.62438000   12.49010000   14.19116000     -0.453913   -0.48006400   -0.09411300
Ge    3.74203000   15.69863000    4.89920000      0.121413    0.64033500    0.05391000
Ge    0.78391000   20.52919000    0.60124000      1.299477   -1.45107600    0.16143200
Ge    3.08567000   18.02468000   10.34917000     -0.977184    0.06248600    0.79517900
Ge    0.86483000    1.54292000   17.57091000      0.145981    0.48692800    0.27095500
Ge   10.11029000    2.94817000    8.34586000     -0.045865   -0.47773600   -0.61460000
Ge    6.64054000    5.42836000   16.48510000     -0.294677    0.32767400    0.17899400
Ge    8.57964000    8.14428000    4.96232000     -0.111287   -0.45593300   -0.41327300
Ge   10.97455000    6.66814000   16.10252000     -0.051550    0.09985300    0.92193900
Ge    6.44064000   16.17924000    9.64788000      0.542657   -1.05106500    0.13378200
Ge   10.71216000   14.72103000   17.09489000     -0.058694    0.30810400    0.62394300
Ge   10.26053000   21.90720000    6.74626000     -0.413191    0.20079700    0.07992700
Ge   10.93841000    1.52991000   13.96396000      0.474712   -0.36866700   -0.83584200
Ge   12.41817000    8.27393000    5.91893000     -0.354488   -1.00629000   -0.25585400
Ge   14.93899000    3.05739000   17.02695000      1.127780   -0.08271600    0.19807000
Ge   16.00936000    9.15350000    6.28431000     -1.896443   -0.15629600   -0.00021500
Ge   15.17777000   13.05802000   15.75011000      0.431422   -0.46838300   -0.88310600
Ge   11.80133000   13.59905000    5.39533000      0.567380    0.51867700    0.36533700
Ge   15.53743000   20.10981000   17.96269000      0.473524   -0.43646400    0.20163100
Ge   14.38073000   20.84362000    8.74288000      0.021209    0.28356600   -0.74726600
Ge   17.95870000   22.01873000   13.42722000      0.936773   -0.35389300    0.62356000
Ge   22.13891000    4.02986000    8.29746000     -0.099634   -0.84970000   -0.71080400
Ge   20.43825000    5.37958000   14.02193000      0.352511   -0.06668200   -0.36287800
Ge   18.71700000   10.73773000    7.34144000      0.457594    1.05946400   -0.35523600
Ge   22.17831000   14.99995000   16.53578000      1.096441   -0.39765600   -0.19312100
Ge   17.90649000   16.23630000    5.73327000     -1.047286   -0.61392200    1.27211800
Ge   16.38757000   18.41075000   15.10945000      0.355644   -0.32151500    0.49710400
Ge   21.56647000    0.15713000    6.50058000      0.397091   -0.76700100   -0.10668600
Ge   18.86838000   21.90232000   17.54212000     -0.226844    0.28465900   -0.24033600
Ge    6.85377000    1.26656000    7.53273000     -0.314341   -2.06170800   -0.08248800
Ge    3.27884000    2.50548000   12.30295000      0.189852    0.41531300    0.49956300
Ge   22.44761000   10.26538000    5.57613000     -0.178596    0.85601500    0.05507400
Ge    3.14870000    7.74527000   11.08028000     -0.720050    0.00741700    0.06915400
Ge   22.48091000   15.95808000    4.11410000      0.674701    0.85548400   -0.32835500
Ge    3.28384000   18.07470000   14.92436000     -0.646292   -0.79846900    1.53770500
Ge    4.81653000   21.54332000    9.19005000     -0.235339   -0.19232700   -0.11548200
Ge    8.97493000   20.02423000   16.15187000      0.194768   -0.73390900    0.30586800
Ge    5.52656000    4.50966000    2.19588000     -0.799395    1.15425500   -1.03351400
Ge    9.53928000    3.27567000   17.62434000     -0.102620   -0.01811800   -0.38549800
Ge    7.04984000    5.55211000    5.48128000     -0.398618    0.12408100   -0.61817600
Ge    8.62675000    9.45037000   13.75423000      0.595405    0.69910700   -0.62901100
Ge    5.52228000   14.29689000    2.97356000      0.175429    0.60184300    0.32576900
Ge   10.76957000   11.66758000   15.92185000      0.780820    0.14352400   -0.59353100
Ge    7.68135000   21.52125000    3.85016000     -0.165929    0.39557100    0.33739200
Ge    9.26549000   16.28222000   12.76351000      0.063732    0.11353800   -0.11722800
Ge   12.19460000    2.01502000    5.10577000      0.548937    0.40385700    0.26711000
Ge   13.33516000    4.31609000   15.13102000     -0.316248   -0.16739400   -0.33226400
Ge   17.90514000    3.83782000    6.49819000     -0.511501   -0.39253100    0.31737500
Ge   15.06657000    9.78188000   14.75209000     -0.135120    0.03040600    0.72792500
Ge   14.64362000   13.68821000    3.43166000      0.271503   -0.50231500   -0.33780300
Ge   13.50340000   15.90326000   11.98731000     -0.119901   -0.92837900    0.21307800
Ge    9.79581000   18.50520000    4.78336000      0.144870   -0.58837200   -0.37912700
Ge   12.70791000   20.12639000   15.64699000     -1.439365    0.33337200    1.39484500
Ge    0.75671000    5.97526000    5.79558000      0.294273    0.19050100    0.42152500
Ge   22.03692000    4.12874000   11.96167000      0.196061   -0.60654900    0.62796600
Ge   20.24142000    8.18853000    7.62991000      0.297228   -0.19615200    0.00622000
Ge   17.15158000   11.01407000   12.04919000      0.187353    0.91633000    0.01162900
Ge   20.98219000   16.75382000    0.34345000      0.076454    0.07390500    0.26077600
Ge   19.31929000   15.43680000   13.98914000      0.112344   -0.15309400    1.10838100
Ge   18.73986000   21.07716000    4.95829000      0.199518   -0.67754800    0.04579100
Ge   21.93990000   20.29292000   12.55398000     -0.499602    0.72630200   -0.12093400
Ge    3.34836000    1.23898000    3.02355000     -0.174323    0.87438000   -0.07656000
Ge    5.76076000    1.00383000   12.07406000      0.102751   -0.12055600    0.17750200
Ge    5.80945000    9.43703000    4.31662000     -0.111520   -0.02435800   -0.20138300
Ge    7.03663000    5.08221000   12.65868000      0.527557   -0.86894500    1.32193000
Ge    5.41203000   12.28432000    0.78554000      0.323857   -1.08030100   -0.56003700
Ge    4.45235000   10.12656000   11.91833000     -0.586819    0.58134300    0.30504000
Ge    2.90299000    0.67560000    8.11813000     -0.305888   -0.59317200    0.98058500
Ge    7.35620000   19.14697000   13.02235000     -0.286766   -0.50867300    0.75810900
Ge    8.98806000    3.58935000    2.33530000      0.176042    0.70950100    0.63865100
Ge    9.81851000    4.46529000   11.78676000      0.010788    0.65560100   -0.15265400
Ge   11.97585000    9.40421000    2.12429000      0.768150   -0.64265300   -0.07886200
Ge   11.70660000    7.88081000   12.39697000     -0.392790    1.36489500   -0.90509600
Ge    9.34249000   13.49924000    2.38150000     -0.596535    0.22585900    0.51717200
Ge    8.06191000   13.20638000   10.61816000      0.563805   -0.17429200    0.06868100
Ge   11.14144000   21.54700000    1.56084000     -0.517833   -0.53882300    0.47888600
Ge   11.92472000   18.94037000   12.37864000     -0.568961    0.18260200    0.38208600
Ge   21.96285000   21.83842000   16.63973000      0.791364    0.24710100    0.27907300
Ge   13.60619000    0.96954000    9.53927000     -0.024071    0.45445100    0.20320600
Ge   16.09270000    6.80595000    2.43678000      0.013699   -0.12268500   -0.63361700
Ge   15.85882000    6.94916000   11.69468000      0.388790   -1.12652100   -0.33236500
Ge   18.08577000   12.43388000    1.42431000     -0.366554   -0.24794900   -0.07222600
Ge   15.22682000   16.09429000    7.56027000      0.374533    0.21186200   -0.46190600
Ge   16.73390000   20.99900000    2.27524000      0.400867    1.00209400   -0.71835700
Ge   16.12478000   20.22448000   11.33496000      0.521991   -0.42706900    0.14038600
Ge   19.79160000    1.41174000    3.10366000     -0.039595   -0.45061800   -0.29196800
Ge    0.48217000    1.21392000   11.26018000      0.056498    0.04055700   -0.44921000
Ge   21.81293000    7.91209000    2.18367000     -0.385631   -0.39958400    0.33400200
Ge   22.48145000    8.83884000   13.79356000      0.751214   -0.40769600    0.23353800
Ge   20.58094000   12.77555000   18.52530000      0.121793   -0.34941900    0.26820800
Ge   22.36129000   15.04392000    9.47561000      0.403935    0.81713000    0.14107100
Ge    3.96279000   21.28699000    5.23692000      0.096494   -0.32603800    0.35070500
Ge   19.57819000   18.38792000   11.39981000     -0.775837   -0.23323700   -0.00360800
Se   20.18020000   22.50614000    0.72962000      0.783479    0.92789300    0.44392800
Se    0.69098000    1.41685000    8.76261000     -0.157208   -0.72231100   -0.90207300
Se    4.31623000   11.50195000    3.61369000     -0.366763   -0.41686500   -0.24536300
Se    0.52024000    6.44793000   14.44907000      0.093226    0.54650700   -1.16217100
Se    0.40699000   12.85288000   17.70498000     -0.301903    0.38898100    0.04218200
Se    1.07345000   12.81929000    9.28189000      0.344043   -0.46379500   -0.25770000
Se    1.99344000   17.86386000    4.52935000     -0.371178   -0.48616000   -0.17230600
Se    1.90336000   15.65049000   10.94865000      0.673223    0.51060600    0.16061100
Se    4.14085000    1.97531000    0.72118000      0.027441    0.02744400   -0.49291600
Se    7.32177000    3.31550000   10.90668000      1.019741   -1.18474800    1.47594000
Se    7.00403000    6.78577000    2.76838000     -0.106191   -0.10413200    0.53728400
Se    9.29744000    7.31619000   11.29178000      0.530642    0.17797900    0.89409300
Se    7.57467000   10.26902000    0.88025000     -0.316094    0.80449900    0.99671400
Se    6.66185000   11.34982000   12.88966000     -0.325082   -0.49588900    0.48872800
Se    5.05306000   20.27323000    2.64877000      0.115165    0.83506300   -0.36757400
Se    8.77048000   18.44877000   11.21863000      1.239810   -0.77452700   -0.46030900
Se   11.30089000    2.70038000    1.01195000     -0.048423   -0.09274000   -0.72277200
Se   13.59134000    1.77485000   13.61633000     -0.678221    0.24882800    0.69588200
Se   12.08499000    8.38158000   18.55000000     -0.442062    0.33851600    0.40134000
Se    9.36262000   10.56984000    9.00838000      0.104030   -0.01502900    1.98027800
Se   12.50738000   15.31886000    2.78864000      1.693662   -0.55260000    0.47135400
Se   11.92654000   10.42962000    7.17577000      0.047174    0.18830700    0.12296900
Se   14.02240000   18.77982000    1.59907000     -0.060698    0.29456200    0.28663100
Se   13.76910000   16.77894000    9.54642000     -1.014431    0.36045500   -0.28675000
Se   18.97151000    3.76249000    1.76358000     -0.540193   -1.04413500   -0.16887200
Se   16.90232000    1.82566000   13.24141000      0.100024    0.24358300   -0.09369700
Se   15.03372000    7.27681000   18.38808000      1.272696   -0.15891000    0.61717300
Se   18.21383000    5.58421000   12.73348000     -0.520459   -0.53379800   -0.87733100
Se   17.95001000    9.57422000    1.54431000     -0.021364   -0.03022900   -0.41526500
Se   16.11068000   13.98084000    5.60065000      0.621318    0.20504300    0.27172100
Se   21.01741000   19.83650000    0.53038000     -1.420256   -0.61722600    0.09638800
Se   16.81953000   19.79639000    8.87856000      1.355327    0.62888100    0.49305300
Se    0.86404000    0.89425000    2.77776000     -0.735624    0.48914100   -0.10505000
Se    6.83940000    6.73541000    9.19191000      0.205915    0.54917300   -0.07011500
Se    7.54502000   11.31891000    3.08008000      0.094114   -0.43019700   -0.42911300
Se    4.80749000   11.07772000    9.24173000      0.052679   -0.10873000    0.16446800
Se    3.60332000   14.03933000    1.27349000      0.552285   -0.03071800   -0.50940400
Se    2.78587000   12.29473000   12.36296000      1.079055   -0.38551800   -0.11630000
Se    2.38507000   22.18946000   18.74951000      0.317056    0.72550500   -0.27580600
Se    6.43003000   19.98587000   10.16119000     -0.006235   -0.27736300   -0.26161200
Se   12.55493000    5.86993000    4.60755000     -0.034508    0.61787200   -0.34782900
Se    7.62464000    3.45895000    7.62220000      0.640943    1.99995300   -0.21121300
Se   11.98198000   11.76539000    1.81276000      0.259689    0.49554500    0.30900000
Se    7.25475000   10.77676000   10.40463000      0.383838   -0.10423500   -0.42706400
Se   10.42654000   15.99971000    2.18897000     -2.124632    0.25267100   -0.42752300
Se   12.50368000   13.59380000   13.85738000      0.198938   -0.21187600    0.39021900
Se    9.92761000   21.60138000   18.00499000     -0.275323   -0.21429800    0.06009900
Se    7.51085000   21.72094000   12.74751000      0.533268    1.14862100   -0.73891000
Se   14.70457000    5.05892000    0.73186000      1.148509    0.73663300   -0.63085500
Se   16.74991000    6.65044000    8.69869000     -0.627338   -0.58306300    0.73991600
Se   14.70858000   10.63765000    0.14387000      0.803076    0.72984800    0.17292600
Se   14.72629000   12.27108000   13.24329000      0.968068   -0.34567000    0.62645300
Se   18.15311000   15.69154000    1.84767000      0.770775   -0.26751800   -0.83049800
Se   15.98918000   10.95058000    9.87126000     -0.255117    0.84131900   -0.35050700
Se   16.82359000   22.50161000    0.30501000     -0.659075   -0.99715600   -0.51725800
Se   15.59331000   18.95660000    7.16173000     -0.991228   -0.53704500   -1.02306400
Se   22.38410000    3.21485000    2.59803000      0.142978    0.26862200   -0.18853900
Se   21.20316000    6.07046000   10.73859000     -0.240383    0.51314700    0.54286900
Se   21.19587000    5.22514000    0.38085000      0.299702   -0.02488500    0.20441000
Se   21.01758000   10.60770000   11.77795000      0.949082    0.54131100    0.97517000
Se   19.83985000   15.35391000   17.42015000     -0.230730   -0.34991300    0.21318700
Se   20.68695000   16.25686000   12.34008000      0.217381   -0.09858600   -1.05796100
Se   20.95150000   21.66631000    3.87103000     -0.470765    0.80508900    0.53158300
Se   18.48372000   21.34486000   11.13176000     -0.588598   -0.17869500   -0.90845800
Se    3.59307000    5.54396000    8.29716000     -0.266159    0.41380600    0.05812000
Se   21.38271000    2.29466000    0.17497000      0.028788   -0.10275900   -0.04463600
Se    2.79527000    9.82976000    8.59666000     -0.763339    0.68758800    0.77648600
Se    1.01577000    9.65802000   17.91044000     -0.095869   -0.22221800   -0.19399500
Se    3.74187000   18.00171000    7.99260000      0.620971   -0.36780100   -0.71603500
Se    0.46226000   17.92262000   14.93102000      0.603188   -0.41213900    3.27005300
Se    0.59226000   18.15575000   12.80960000      0.326714    0.39686100   -3.37320900
Se    2.11265000   21.00501000   16.63982000     -0.333220   -0.01827600    0.20234500
Se    3.13391000    4.08846000    5.45843000     -0.192959    1.06126500   -0.93681500
Se    5.45250000    6.87259000   18.48814000      0.756923   -0.31743300   -0.31907900
Se    5.77907000    8.67420000    6.74677000     -0.008467    0.16514700    0.02628300
Se    3.52590000    7.45563000   17.38961000     -0.510226   -0.19414600   -0.22447400
Se    5.98116000   14.05623000   11.58576000      0.079034    0.97115700   -0.72408400
Se    6.62677000   17.52442000   18.42720000     -0.832327    0.12304100   -0.33953100
Se    8.84316000   19.53043000    7.00102000      0.595643    0.31618300    0.08669100
Se    6.54219000   19.88509000   17.58356000     -0.365884   -0.69993700   -0.11982800
Se   10.72528000    1.32732000   11.31143000      0.310692    1.48451800    0.49709000
Se   12.08267000    4.39667000   17.60576000     -0.157253    0.95139000   -0.65055700
Se   13.72413000    7.26940000    7.68156000     -0.067258    0.34515000    0.08902200
Se   13.83248000   11.32610000   16.60624000     -0.197368   -1.32851400    0.01232500
Se   10.61456000   15.38739000    7.08260000      0.099589   -0.15088900    0.89649500
Se   14.64970000   16.31778000   18.34590000      0.598358   -0.55046600   -0.31802800
Se   12.70609000    0.24542000    7.08175000     -0.766665    0.11264800   -0.41929700
Se   13.28169000   21.40386000   18.38022000      0.211744    0.45473500   -0.46782800
Se   13.22245000    3.39907000   10.20973000      0.424420   -0.47926600   -0.22988700
Se   21.89659000    3.77432000   16.08016000      0.225963   -0.66493900   -0.24855400
Se   19.41528000   11.14083000   10.10163000     -1.010176    0.47904000    0.13058700
Se   17.04739000    9.26870000   16.56285000     -0.331372    0.09032800   -0.72826700
Se   13.58741000   15.88651000    5.49556000      0.519156    0.45315100    0.94270900
Se   20.91530000   13.40705000   15.02565000     -1.408653    0.19710100   -0.94446200
Se   19.94092000   20.46441000    7.51204000      0.479235    0.81596600   -0.49440700
Se   18.36081000   19.39794000    2.54722000      1.139861   -0.64536600    0.14429900
Se    4.54358000    2.31157000    8.86832000      0.207226    0.01806700    0.53206200
Se    2.68080000    3.61528000   18.69112000     -0.393456   -0.77912900   -0.08087200
Se    9.23015000   10.15801000    6.78092000     -0.534002   -0.97899800   -1.06015100
Se    4.61760000    9.39559000    1.16531000      0.071100    0.56817000    0.10576900
Se    6.54098000   16.52457000    5.95222000     -0.351608    0.39377100   -0.73427800
Se    4.61533000   11.01396000   17.39359000      0.000903    0.48493500    0.05759900
Se    0.52168000   19.63473000    9.87136000     -0.232115   -0.15244100   -0.02898900
Se    1.42421000   17.75183000    1.26673000     -0.153617    0.42410700   -0.46372000
Se    8.91310000   22.21552000    8.95574000     -0.272649    0.53162300   -0.23909600
Se    7.25235000    3.03941000    0.73187000     -0.527430   -0.03448300   -0.43672400
Se   10.77384000    5.08186000    9.38732000     -0.208247    0.14681600   -0.17007100
Se    8.70990000    5.95348000   17.70482000      0.328522   -0.20998000    0.00042600
Se    8.63691000   12.42056000    6.09495000      0.387037    1.01318300   -1.35820100
Se    8.41842000   13.79127000   17.42076000      0.424150    0.02028000    0.19156300
Se   12.08445000   20.65659000    9.98097000     -0.512836   -0.26803100    0.49650600
Se   12.25637000   13.23708000   18.59339000     -0.962396    0.17414600   -0.25999700
Se   15.24760000    0.88545000    7.42621000      0.894719   -0.13285500    0.32061400
Se   15.27865000    2.26872000    0.59774000     -0.091823    0.10667200   -0.50038200
Se   16.99168000    3.65400000    8.93680000     -0.861307   -0.47579500   -0.39122000
Se   13.54007000    7.70518000   15.61189000      0.508049    0.07299400   -0.35621300
Se   16.96293000    9.08157000    8.62868000      0.378867   -0.38568100    0.57056500
Se   15.36762000   14.08602000    0.75737000     -0.364274    0.29870100   -0.45009400
Se   12.41968000   18.00216000    5.53734000     -0.200563    0.60825900   -0.55335800
Se   17.46737000   18.44481000   17.88406000     -0.120454   -0.12916500   -0.01863200
Se   20.93901000    2.49715000   10.14053000     -0.303600    0.01606000    0.27839300
Se    0.31516000   21.74967000   14.36587000     -0.035182    0.36570700   -0.81103100
Se   19.90922000    8.65881000   10.07642000     -0.300266   -0.62081300   -0.45934300
Se    0.07163000    6.07567000   17.67754000     -0.420310   -0.33737800   -0.27554800
Se   20.90554000   12.07768000    7.08362000      0.831270   -1.00852100   -0.43589400
Se   19.84183000   10.61674000   17.29715000     -0.201909    0.08195300    0.53771200
Se   18.92295000   16.89326000    7.98270000     -0.288178    0.56518600   -0.10972500
Se   19.00124000   17.52475000   15.30303000      0.102582   -0.49678400   -0.04227800
Se    3.04398000   21.56906000   10.90227000      0.030875    0.40984000    0.28552600
Se    2.30724000    2.24829000   14.87210000     -0.873749   -0.98069700   -0.70367800
Se    0.33263000    7.91655000    8.13765000     -0.715112    0.33742900   -1.02218000
Se    1.63089000    9.59260000   15.56735000      0.043470    0.41072000    0.59667000
Se    2.98210000   15.55517000    7.38905000      0.050108   -0.29395400   -0.14365800
Se    3.14005000   12.95831000   16.15985000      0.210035    0.01297700    0.31648400
Se    0.82785000   16.73648000    7.79927000     -0.295432   -0.42346200   -0.54643100
Se    3.05286000   20.32331000   13.82683000     -0.650939    0.12202000   -0.91609000
Se    6.02486000    0.73940000    2.66846000      0.651573   -1.14173500    0.38995300
Se    6.73388000   21.14838000    0.68833000      0.152774    0.31571400   -0.00019400
Se    9.80239000    6.04620000    6.08609000     -0.041677    0.73398300   -0.12635700
Se    4.50383000    4.45394000   13.78040000      0.012027    0.09825300   -1.14832200
Se    4.52459000   13.26604000    5.28706000      0.253416   -0.78915800    0.61458000
Se   10.25340000   14.36697000   14.71812000     -0.450941   -0.50326300   -0.27565600
Se    6.96615000   18.13522000    4.06655000     -0.098546   -1.03017000    0.35317300
Se    8.29634000   17.03946000   14.97139000      0.000654    0.62774400   -0.05116800
Se   13.40873000    0.53261000    3.43267000      0.594545   -0.58906000    0.88947100
Se   13.34711000    0.52543000   16.19920000     -0.079608   -0.26787400   -0.22407300
Se   13.77446000    9.66757000    4.48311000      0.600232    0.21195800   -0.36041400
Se   11.32002000    6.02005000   13.71021000     -0.271035   -2.43889700    0.68958700
Se   14.40341000   12.13864000    5.61965000     -0.678077   -0.15709400   -0.07292400
Se   13.70843000   14.93705000   15.65010000     -0.211114    0.03281800   -0.17919900
Se   11.76268000   19.32226000    7.82694000      0.130123    0.06596100   -0.41289300
Se   11.71640000   18.88896000    0.50924000      0.565656    0.96322600    0.38889000
Se   19.51622000    1.60582000    6.64619000     -1.310335   -0.16448800    0.35791100
Se   20.15815000    1.38521000   15.88222000     -0.279736   -0.00964000    0.44005900
Se   20.04720000    5.06288000    7.33119000     -0.122152    1.09798000    0.31854700
Se   19.25575000    6.54742000   15.79382000     -0.486676    0.15001800    1.28006400
Se   19.03442000   12.86720000    3.57868000      0.431775   -0.49244500    0.57451000
Se   17.21501000   14.41349000   13.52807000     -0.066607    0.04843700   -0.12344600
Se   16.92686000   17.87478000    4.42961000     -0.804953    0.89060100   -0.68538000
Se   16.93736000   20.87248000   15.85197000     -0.481671   -0.41912700    0.04630200
Se    2.12593000    8.21496000    5.24815000     -0.056982    0.25589200    0.13633100
Se    3.03710000    7.01947000   13.37162000      0.117310   -0.08749100    0.38902200
Se    1.14445000   12.27541000    4.45188000     -0.315433    0.00133100    0.77135400
Se    4.39062000    9.88455000   14.84134000      0.127054    0.28063700   -0.09478700
Se    5.50079000   14.48369000    8.03870000      0.509507    0.14764300    0.08915400
Se    3.66917000   16.61260000   17.02643000      0.022800    0.39249200   -0.00867900
Se    2.83930000   20.43674000    7.50008000      0.290986    0.79472800   -0.00448000
Se    6.13555000    0.25103000   14.68169000     -0.283116    0.48578100   -0.10516500
Se    8.93856000    1.04192000    5.30750000     -0.444943   -0.80317100    0.44830500
Se    7.26560000    1.68409000   17.71143000      0.191778    0.32669000    0.14835100
Se   12.80867000   11.70118000    9.03084000      0.211302    0.35903100    0.25329300
Se    9.85645000    9.85525000   17.58707000      0.702215   -1.37720500   -0.31104700
Se    8.23759000   14.39375000    8.19858000     -0.587219    0.38367600    0.44032900
Se   11.67266000   16.73521000   13.65492000     -0.181554    1.29849500    0.18407400
Se   10.96813000   20.56695000    4.19304000     -0.046578    0.36093500    0.12887500
Se   10.37096000   17.72892000   17.31103000     -0.468939    0.27161600   -0.95434200
Se   10.30860000    3.66635000    5.46876000     -0.250788   -0.21997600    0.48161000
Se   17.39841000    4.17296000   16.80199000     -0.228006   -0.61502100    0.67630100
Se   17.46585000    7.41443000    5.62881000      0.431021   -0.70715500   -0.20904300
Se   17.21322000    8.70585000   12.64312000     -0.006660   -0.05681300    0.47197400
Se   17.56024000   10.46470000    5.02186000      0.653992    0.83640100   -0.28196300
Se   14.05458000   17.75645000   16.35468000      0.004748    1.47361300   -0.45079300
Se   15.73614000    2.95404000    4.46351000     -0.256477   -0.14588900   -0.14176900
Se   19.11077000    2.61161000   12.15832000      0.079827    0.42147000    0.33053100
Se   22.49943000    3.18801000    5.68351000      0.078481   -0.34902900    0.43704800
Se    1.79351000    4.41678000   15.80755000     -0.390831    0.07039500   -0.11572100
Se   18.07138000   13.46451000    7.63120000     -0.591372   -0.40527100   -0.00420800
Se   22.41287000   13.12527000   13.19831000      0.098379   -0.25378500    0.35370300
Se   19.77025000   15.39464000    4.69031000      0.815360   -0.48539000   -0.01134300
Se   19.77754000   19.86496000   13.67210000     -0.125876   -0.31070400    0.89955500
Se   21.37310000   17.76787000    9.45571000      0.490376    0.69856100    0.10084900
Se   20.52809000   19.77321000   17.02691000      0.015448    0.06594900   -0.08366100
Se    3.23972000    1.03673000    5.84039000      0.212104    0.00687700   -1.43112800
Se    7.07635000    3.02480000   14.70246000     -0.427126   -0.55604100   -0.53209500
Se    1.85173000    7.31193000    2.54141000     -0.456618   -0.07328900   -0.58879300
Se    5.79842000    6.78406000   11.60158000     -0.943946    1.27017000   -1.04895400
Se    1.51828000   14.94323000    2.03753000     -0.657558    0.67610900    0.52003200
Se    5.86885000   15.31366000   14.73634000      0.802428   -0.22860500   -1.07106400
Se    4.61860000   18.05186000    3.14313000      0.324323   -0.34299000    0.13487100
Se    5.30652000   17.47052000   11.51347000     -0.169351    0.87387900    0.19726600
Se   10.05048000    1.40219000    2.67040000      0.096840   -0.79205800    0.32401200
Se   10.40404000    0.80554000   16.48825000      0.487764    0.16424400   -0.00554500
Se    9.96588000    8.43081000    2.85969000     -0.660593   -0.54667300   -0.33355000
Se    7.16221000    7.25615000   14.61931000     -0.078993   -0.48392200    0.29413500
Se   10.59992000   11.78493000    4.30542000     -0.640871   -0.76008100   -0.72678400
Se    9.66920000   11.36328000   12.24943000      0.364693    0.04611900    0.06046300
Se    8.98872000   19.74572000    1.10218000     -0.257805    0.38934300    0.74307100
Se   16.67208000   18.06896000   12.46319000     -0.133206    0.07541900   -0.37092900
Se   14.04265000    3.96820000    5.80563000     -0.378346   -0.77292100    0.12305000
Se   15.85598000    0.62953000   15.83025000     -0.060999    0.82565600    0.48152000
Se   16.78935000    5.17586000    4.33621000     -0.044759    0.24722200    0.05354400
Se   13.20701000   10.05122000   10.70632000      0.084166    0.10220600    1.01925600
Se   15.72769000   11.41595000    2.30395000     -0.178114    0.07673600    0.54236400
Se   17.51731000   12.81733000   16.45135000     -0.748260    0.88853800   -0.69370700
Se   16.06685000   16.44199000    2.45824000     -0.310460    0.07352400    0.73447900
Se   14.48495000   21.88477000   12.21474000      0.305653    0.88493800    0.12857900
Se    0.09553000   20.07983000    6.57165000      0.074187    0.11690500    0.75436900
Se   20.57042000    0.91662000   13.61289000     -0.029246   -0.17946500   -0.65351400
Se   21.24741000    6.35153000    4.36177000     -0.128507    0.42127900   -0.53174600
Se   20.10078000    8.19417000   14.31346000     -0.314984    0.48514000   -0.34395300
Se    0.14405000   14.32611000    6.08423000      0.925437   -0.32983100   -0.67546800
Se    1.61584000   14.36812000   14.33789000      0.167387    0.34347300    0.54296500
Se   20.90989000   17.92701000    3.93800000      0.521411    0.43875300    0.16715700
Se   21.01442000   21.27821000   10.30520000      1.251356   -0.47223300    0.28879400
Se    2.58144000    3.84910000    2.91731000      0.459334   -0.01948800    1.09677800
Se    1.74559000    3.73758000   10.67493000      0.404739   -0.06428300    1.05503400
Se   21.52942000   10.81389000    1.64361000      0.294819   -0.40496300   -0.49448800
Se    1.22844000    9.56350000   11.63221000      0.198081   -0.51224400    0.11749500
Se    0.58023000   17.11685000   17.95162000      0.160993    0.07301000    0.60534800
Se    4.03190000   16.15653000   13.49046000     -0.447230   -0.31534600   -0.37728700
Se    1.78288000   21.18369000    2.85594000      0.912299   -1.09355100    0.36195400
Se    5.17434000   20.27104000   14.71169000      0.760627   -0.37942000    0.43130400
Se    6.40879000    3.53119000    4.11071000      1.199734   -1.20141100    1.04856500
Se    9.33863000    3.49181000   14.85717000      1.167628    0.40134700    0.22528100
Se    4.50987000    6.25569000    5.22595000     -0.184541   -1.15271000    0.42276500
Se    8.28978000   11.02595000   15.97845000     -0.723989    0.28166500   -0.76348000
Se    7.19792000   14.39515000    1.08989000     -0.133822    0.15516400   -0.40916900
Se   11.49575000   14.54904000   11.21183000      0.576853   -0.23455600   -1.48813700
Se    6.73498000   20.76146000    6.32462000     -0.538087   -0.00321100   -0.21246400
Se   10.40151000   20.56375000   13.91343000      0.754406   -0.14847200    0.13087400
Se   13.05586000    4.00248000    2.21976000     -0.826698   -0.41246100    0.59168500
Se   13.37040000    6.67078000   10.98910000     -0.030886    0.35396000   -0.05008100
Se   13.31867000    7.19972000    2.56717000      0.100928   -0.14517300    0.37827600
Se   11.58833000    9.64491000   14.41402000     -0.387520   -0.02957100   -0.23321100
Se    8.58457000   14.65189000    4.44682000     -0.227998   -0.35658400    0.11312000
Se   15.36885000   13.66039000   10.37609000     -0.231636   -0.38557000   -0.29063800
Se   15.02373000   20.52341000    3.68533000     -1.287062   -0.60023600    0.10299200
Se   13.99808000   20.01806000   13.72501000      0.769911   -0.92146600   -1.01735900
Se   18.70625000    6.03565000    1.18967000     -0.550794    0.19979000    1.04516200
Se   15.21666000    5.94119000   14.91187000     -0.399678    0.40427900   -0.14965400
Se   19.44711000    8.51594000    4.01897000      0.293647   -0.39584600   -0.25562800
Se   19.76543000   13.87348000   10.25533000     -0.741780    0.05751000    0.16520100
Se   21.69128000   14.48826000    1.40645000     -0.179171    0.38055400    0.54368200
Se   17.36145000   16.94687000    9.99741000      0.444927   -0.62904400    0.50275300
Se   17.53876000    0.32996000    3.64134000     -0.207548    0.94736000    0.37366300
Se   16.56935000    1.23205000   10.86094000     -0.912989    0.21282800   -0.06322800
