384
22.54784000 22.54784000 18.93360000
Ge    6.01305000    4.56775000    9.19000000     -0.993236   -2.01842000   -0.24279200
Ge    4.17507000    7.78354000    3.07026000      1.115026    0.34383900   -0.01274000
Ge    2.16686000   11.96849000    7.04286000      0.326733    0.07719600   -0.54640300
Ge    7.09296000    8.68703000   16.42804000     -0.626110    0.06124200    0.61302800
Ge    3.51415000   13.77215000   10.29430000      0.002199   -0.31676200    0.15413800
Ge    8.83900000   17.42164000    0.20657000     -0.577773   -0.26365600    1.33857200
Ge    6.81445000   18.32964000    8.02215000     -0.586829    0.22514100   -0.43168000
Ge    4.53276000    3.04916000   15.68430000     -0.201772    0.22401300    0.66867600
Ge    9.23868000    7.07911000    8.60193000      1.112104   -0.04183000    0.33452300
Ge   11.37865000    6.41518000    1.06853000     -0.422890   -0.63992000    0.02253000
Ge   12.17754000    8.46852000    9.39590000     -1.036109   -0.16079300    0.90633900
Ge    9.95767000   11.87379000    0.20154000     -0.130319    0.60417600    0.18046900
Ge   11.02675000   17.26995000    8.88317000      0.569206    0.15608300    1.13411500
Ge   12.36454000   16.61087000    0.47116000      0.054265   -1.68709500    0.11870000
Ge   10.07433000   21.46761000   11.53229000     -0.737480    0.62845700   -1.26438100
Ge   13.21365000    0.66569000    1.03337000      0.347397    1.64542900    0.02759000
Ge   18.65647000    5.21481000    9.69800000      0.659218    0.94201500    0.58405000
Ge   17.72263000    7.48850000   18.25643000     -0.718933   -0.40848000   -0.13511300
Ge   17.43616000   14.53147000   11.03025000     -0.190812    0.69469900   -0.30106700
Ge   17.14158000   11.07149000   18.14515000      0.624552   -0.72965800    0.08447000
Ge   12.78438000   14.12139000    9.06381000     -0.235971    1.42552800    0.15945000
Ge   17.12476000   15.50591000   18.18718000      0.980081    0.09094000   -0.84387800
Ge   15.20224000    3.58446000   11.51095000      0.415336   -0.43851600   -0.44153900
Ge   18.49805000    2.41807000   18.34109000     -0.425323    0.27489500   -0.21935100
Ge    0.72106000    5.93875000    9.57141000      0.095237    0.72283900   -0.50330800
Ge   20.30563000    3.71897000    4.87058000     -0.177065    0.49809600   -0.92326100
Ge   22.01059000   10.78423000    9.25794000     -0.161873   -0.58701100    0.02819700
Ge   19.88920000    9.02148000    0.35658000      1.977431    0.11136900   -1.22794500
Ge   20.34752000   14.71837000    7.45379000     -0.414197   -0.31638100   -0.52916400
Ge    5.56812000   14.75909000   17.14237000     -0.779396    0.17173200    0.00005500
Ge   17.70719000   22.41757000    7.42234000      0.236337   -0.53407900    0.09344000
Ge    0.14736000   19.68204000    4.50964000     -0.850974   -0.26285500   -3.43579900
Ge    3.59345000    7.76264000    7.29784000      0.113596    0.35400900   -0.84280400
Ge    1.57839000    7.32594000    0.08412000      0.117490    0.50470200   -0.20268200
Ge   20.43569000   10.78789000    3.88386000      0.923183    0.72328200   -0.73339900
Ge    4.71401000   12.41649000   14.15249000     -1.064596   -0.18100900    0.22039600
Ge    3.62495000   15.55670000    4.79652000      0.168545    0.47513300    0.00692600
Ge    0.75655000   20.51189000    0.64354000      1.695391   -0.56902200    0.62189200
Ge    3.04584000   18.05953000   10.51754000     -0.518265    0.26002100   -0.25469100
Ge    0.68893000    1.62463000   17.44054000      0.778209    0.09323600    0.11435400
Ge   10.18763000    2.94309000    8.52663000     -0.762118   -1.96546700   -1.12035700
Ge    6.48460000    5.40359000   16.46280000      0.132830   -0.15526500    0.82961400
Ge    8.52654000    8.12953000    4.82233000     -0.120412   -0.68575200    0.14674700
Ge   11.02868000    6.71882000   16.04484000     -0.154707   -0.37421100    0.59620900
Ge    6.50010000   16.07547000    9.58450000      0.464653   -0.09052300    0.43473200
Ge   10.80851000   14.68655000   17.24182000     -0.449175    0.20369500   -0.26462200
Ge   10.30560000   22.02077000    6.71942000     -0.616196   -0.62361700    0.57870800
Ge   11.18029000    1.51183000   13.90544000     -1.232675   -0.00325700   -0.45801800
Ge   12.35954000    8.34225000    5.71816000     -1.820842   -1.87864500    1.30932400
Ge   14.97999000    3.02722000   16.89774000      1.202266    0.27894200    0.71907700
Ge   15.92567000    9.03053000    6.25684000     -1.283827    0.35621500    0.41988400
Ge   15.34512000   13.08722000   15.59547000     -0.986637   -0.13895200    0.08504500
Ge   11.74436000   13.58145000    5.49411000      1.048674    1.23817300    0.96638600
Ge   15.42204000   20.00780000   18.01830000      1.216404   -0.90430100   -0.18366900
Ge   14.20475000   20.93583000    8.62438000      0.486743   -0.31267800   -0.44633200
Ge   18.10144000   21.87043000   13.38946000      0.643557    0.10221600    1.19465500
Ge   22.15024000    3.93597000    8.07647000     -0.083627    0.77931000    0.77970800
Ge   20.49555000    5.44531000   14.08635000      0.278489    0.26963400    0.10327900
Ge   18.67505000   10.73064000    7.39843000      0.425496    0.95436200   -0.36111400
Ge   22.18458000   14.96380000   16.68429000      0.848276   -0.00296200   -1.03728600
Ge   17.65352000   16.06813000    5.71694000     -0.166389   -0.16756400    1.38132800
Ge   16.41703000   18.49253000   15.11799000      0.672584   -0.16267000    0.70256900
Ge   21.33806000    0.05123000    6.60718000      0.828170   -1.14711600   -0.28179000
Ge   18.91910000   21.90043000   17.46456000     -0.476543    0.13375000   -0.11978900
Ge    6.69823000    1.16688000    7.53357000     -0.112671   -1.42337100   -0.02240500
Ge    3.24552000    2.47285000   12.33948000      0.321838    0.43347200    0.30453000
Ge   22.45915000   10.48533000    5.56072000      0.235896    0.29928000   -0.30862100
Ge    3.12646000    7.79838000   10.86745000     -0.570641   -0.46120600    0.85591300
Ge    0.01458000   16.22457000    4.10444000      0.694566    0.28943600   -0.31541800
Ge    3.43678000   17.96719000   15.16319000     -0.843120    0.25286000   -0.72775300
Ge    4.79151000   21.63466000    9.09779000      1.081518   -0.62352000    0.00150500
Ge    8.97753000   20.09247000   16.08310000     -0.207537   -0.79724800    0.37058600
Ge    5.52261000    4.65373000    1.94206000     -0.588015    0.43361200    0.13987500
Ge    9.56826000    3.34650000   17.71279000      0.249909    0.18712200   -0.41050200
Ge    7.06407000    5.19698000    5.50069000     -0.104510    0.75081900   -0.13075400
Ge    8.69208000    9.44214000   13.64130000      0.292319    0.82094900   -0.40848400
Ge    5.58522000   14.26173000    2.84706000     -1.104411    0.67375600    1.65717400
Ge   10.68807000   11.51843000   16.02779000      0.447951    0.32377000   -0.48561800
Ge    7.51417000   21.39894000    3.89487000     -0.339657    0.07118800    0.28965200
Ge    9.24156000   16.47185000   12.73913000      0.112269   -1.13158100    0.24956800
Ge   12.17019000    1.82740000    5.06726000     -0.082925    1.16966900    0.49296200
Ge   13.35770000    4.13087000   15.07181000     -0.084870    0.79847100    0.14701900
Ge   17.80999000    3.84078000    6.43265000      0.134031   -0.03905800    0.43097100
Ge   15.05995000    9.66172000   14.94700000      0.072032    0.31450200    0.13720000
Ge   14.71817000   13.62903000    3.51238000      0.137985   -0.73174000   -0.87268400
Ge   13.49262000   15.76526000   12.11674000      0.184764   -0.66127400   -0.15842600
Ge    9.70213000   18.55384000    4.82410000      0.308670   -0.78414400   -0.88030500
Ge   12.63656000   20.22094000   15.80593000     -0.093705   -0.22340900   -0.17647000
Ge    0.80848000    5.97512000    5.68946000      0.292821    0.39459500    0.90699700
Ge   22.02745000    4.16614000   11.89887000      0.555193   -0.96913700    0.99040100
Ge   20.28251000    8.06619000    7.54224000      0.274854   -0.02415900    0.24684800
Ge   17.06241000   11.19354000   12.09631000      0.187676    0.63265000    0.01713800
Ge   20.98154000   16.61122000    0.36767000      0.928791    1.72370500    1.05124400
Ge   19.34486000   15.31646000   14.12541000      0.578710    0.56908700   -0.04626300
Ge   18.61797000   21.06097000    4.90726000      0.948368   -1.22184100    0.33992300
Ge   21.98286000   20.26656000   12.53431000     -0.350965   -0.16786600   -0.65575200
Ge    3.35381000    1.25214000    2.92489000     -0.920094    0.68106900    0.61181800
Ge    5.93249000    0.92904000   12.12314000     -1.171913    1.22936300   -0.43363900
Ge    5.82868000    9.41565000    4.39121000      0.110417   -0.00706800   -0.04172100
Ge    6.99044000    5.07161000   12.56083000      0.382057   -0.74401700    0.89318100
Ge    5.28107000   12.37656000    0.76374000      0.267563   -1.67661400   -0.78372200
Ge    4.57244000   10.00634000   11.84691000     -0.562776    0.63472800   -0.02626700
Ge    2.74948000    0.59018000    8.23029000      0.418622   -0.23819900   -0.04961200
Ge    7.29191000   18.97010000   13.13149000     -0.216450   -0.15559200    0.72988600
Ge    8.94996000    3.71144000    2.67663000     -0.319424   -0.36273200    0.03622700
Ge    9.82297000    4.41625000   11.69315000     -0.337210    0.15667500    0.31114200
Ge   12.16860000    9.38301000    2.31049000      0.205743    0.67700700   -0.26302000
Ge   11.68756000    8.07386000   12.51081000      0.106629   -0.84154600   -0.97089000
Ge    9.38862000   13.65623000    2.30395000     -0.404669   -0.28703800    0.33268700
Ge    8.12940000   13.35075000   10.55493000      1.068231   -0.65455400   -0.08636000
Ge   10.96044000   21.51658000    1.52065000     -0.082689   -0.32300000    0.57755500
Ge   11.90157000   18.76690000   12.52576000     -0.055302    3.23570400   -1.72828300
Ge   22.00668000   21.82825000   16.62172000      1.294715   -0.04344200   -0.18249000
Ge   13.67335000    1.07801000    9.64723000      0.222557   -1.07941600    0.24087800
Ge   16.09697000    6.89594000    2.46186000      0.078324   -0.45869800   -0.74611400
Ge   16.01713000    6.96323000   11.92491000     -0.005003   -0.62011400    0.04285500
Ge   18.16568000   12.47264000    1.24827000     -0.330237    0.00710300    0.75255600
Ge   15.20354000   16.18123000    7.61783000      0.538796    0.34837400   -0.30545100
Ge   16.82039000   21.03008000    2.14316000     -0.618554   -1.62595000    2.41884600
Ge   16.09598000   20.23959000   11.45611000      1.218966   -0.25561500   -1.04041400
Ge   19.61193000    1.37301000    3.18077000      1.221825    0.19678700   -0.56990800
Ge    0.51025000    1.29142000   11.26189000     -0.151317    0.01085600   -0.71072200
Ge   21.77378000    7.94171000    2.19371000     -0.336304   -0.36604700   -0.10408600
Ge   22.49883000    8.79927000   13.89542000      0.707350    0.31964200    0.10420900
Ge   20.49027000   12.86216000   18.53198000      0.167891   -0.91424200   -0.13669000
Ge   22.43974000   15.10695000    9.63503000      0.192537    0.75427200   -0.10840900
Ge    4.05155000   21.30028000    5.45982000      0.547956   -0.18441600   -0.12420200
Ge   19.50957000   18.27172000   11.53379000     -0.863586    0.64613000   -0.16464600
Se   20.12202000    0.10292000    0.70468000      0.821958    0.71904400    0.29134500
Se    0.54516000    1.36978000    8.68526000     -0.173430   -0.90963800   -0.39435600
Se    4.42539000   11.50267000    3.76413000     -0.270599    0.25993900   -0.09652500
Se    0.58460000    6.53212000   14.41655000      0.274148   -0.34903400   -0.72861400
Se    0.31661000   12.81724000   17.55720000     -0.092609   -0.43482200    0.50208800
Se    1.06598000   12.82837000    9.23704000      0.464046    0.11260900    0.02301100
Se    1.96865000   18.10170000    4.45344000      0.049308   -0.96644300    0.04868500
Se    1.90143000   15.75646000   11.23011000      0.509914    0.06123700   -0.33920600
Se    4.12346000    2.00056000    0.70134000     -0.322235    0.28220800   -0.97002600
Se    7.41728000    3.26060000   10.77564000      0.219812   -0.19382200    0.78997400
Se    7.03606000    6.73223000    2.86029000      0.148334    0.12814800    0.19281400
Se    9.42561000    7.30981000   11.35588000      0.051774    0.24040300    0.53517300
Se    7.64638000   10.24485000    1.00045000     -0.364628    0.50119700    0.30491300
Se    6.60541000   11.31939000   12.77934000      0.066032   -0.62151200    0.61961300
Se    4.94808000   20.42800000    2.80826000      0.294048    0.00438800    0.15505200
Se    8.84111000   18.40802000   11.34321000      0.622464    0.07843100   -1.14459100
Se   11.23842000    2.64652000    0.90899000     -0.001380    0.12350400    0.26982000
Se   13.52393000    1.78361000   13.58353000      0.587464    0.29704800    0.14541900
Se   12.09006000    8.34206000   18.70197000     -0.547291    1.03314000   -0.36121500
Se    9.40716000   10.74005000    9.08308000      1.014731   -0.03036100    0.53809500
Se   12.67924000   15.28944000    2.81574000     -0.153264   -0.22493200   -0.04454700
Se   11.77606000   10.42090000    7.11581000     -0.533183    0.12435800   -0.03698800
Se   14.09012000   18.77285000    1.42490000      0.185442    0.45254600    0.38166400
Se   13.81940000   16.68716000    9.57604000     -1.358320    0.48912600    0.10299000
Se   18.82728000    3.58119000    1.62595000     -0.349072    0.05369200    0.21560600
Se   16.96530000    1.81036000   13.37711000     -0.079495   -0.10475300   -0.62102700
Se   15.18589000    7.19016000   18.36407000      0.967585   -0.21599400    0.64696400
Se   18.27822000    5.46522000   12.62095000     -0.698903   -0.31331500   -0.55590900
Se   17.98899000    9.45657000    1.60112000     -1.316461    0.73096100   -0.14006800
Se   16.16169000   13.98557000    5.51865000      0.355517   -0.11737400    0.39788400
Se   20.99351000   19.79088000    0.51984000     -1.213543   -0.46182700    1.57919800
Se   16.95261000   19.60920000    8.96806000      0.078119    1.23706500   -0.05110100
Se    0.84953000    0.83060000    2.76236000     -0.195630    0.18172600   -0.06996500
Se    6.89726000    6.67991000    9.17634000      0.039352    1.63303300    0.00767300
Se    7.54847000   11.34306000    3.03068000     -0.035091   -0.26983100    0.37885500
Se    5.06123000   10.95147000    9.26360000     -0.669164   -0.24497800    0.01415900
Se    3.43896000   13.97079000    1.16331000      1.336725   -0.26540900   -0.75285300
Se    2.68931000   12.27878000   12.19503000      1.275797   -0.66826200    0.70874200
Se    2.33580000   22.22619000   18.59122000      0.096660    0.18155700    0.17388000
Se    6.44192000   20.05948000   10.31898000     -0.164277   -0.44996200   -0.74268500
Se   12.55898000    5.88089000    4.65103000      0.504397   -0.00081900   -0.19940400
Se    7.55192000    3.41658000    7.56528000      0.812632    1.26091900   -0.37026100
Se   12.09641000   11.80323000    1.89661000      0.119517    0.02496000    0.26354000
Se    7.39968000   10.69749000   10.27845000     -0.339919    0.26453800    0.19874000
Se   10.36421000   15.98733000    2.14337000     -0.310645    0.52858000   -0.36685900
Se   12.33953000   13.70816000   13.77358000      2.947444   -0.74068600   -0.49414100
Se    9.81384000   21.58453000   18.03180000      0.407079    0.66836600   -0.64719000
Se    7.40601000   21.80694000   12.75271000      1.333783   -0.54550600   -0.24904500
Se   14.76509000    5.08150000    0.81718000      0.479054    0.38011300   -0.04772100
Se   16.74458000    6.55458000    8.73851000     -0.354222   -0.07964700    0.59210500
Se   14.89934000   10.79591000    0.09566000     -0.562963    0.36962200    0.41384300
Se   14.82112000   12.24019000   13.34199000      0.787156   -0.79114900    0.03821500
Se   18.09752000   15.69666000    1.55046000      2.192906   -0.51534000   -0.20969500
Se   15.87477000   10.92319000    9.90819000     -0.182767    0.57467600   -0.21501100
Se   16.73159000   22.38758000    0.44087000     -0.604940    0.84880000   -2.92223800
Se   15.52704000   18.92212000    7.27180000     -0.354281   -0.27070500   -0.44585200
Se   22.25411000    3.48235000    2.72053000      0.013043    0.08328800   -0.09176800
Se   21.10663000    6.10371000   10.90558000      0.529350    1.04295200   -0.36256300
Se   21.16978000    5.29732000    0.51660000      0.978818    0.18051700   -0.47174800
Se   21.14063000   10.45100000   11.83077000      0.321947    0.43773600    0.52101000
Se   19.88412000   15.44488000   17.61736000     -1.109303   -1.27079600   -1.71829900
Se   20.64917000   16.28424000   12.27260000     -0.075164   -1.25464100    0.19208600
Se   20.93040000   21.73165000    3.81498000     -0.565966    0.22431600    0.77895300
Se   18.53843000   21.35796000   11.11121000     -0.621890   -0.05174900   -1.36253800
Se    3.39495000    5.53914000    8.28998000     -0.035692    0.33757700    0.30190000
Se   21.50225000    2.32943000    0.06463000     -1.014951   -0.28637800    0.35301500
Se    2.80256000    9.74175000    8.72964000      0.108303    0.31023100   -0.07720000
Se    0.97615000    9.57210000   17.72841000     -0.505671    0.26327400    0.91523600
Se    3.76018000   17.80307000    7.96986000      0.560590    0.49270600    0.44615200
Se    0.50125000   17.97612000   14.95441000      0.767829   -0.28535200    0.44688800
Se    0.67623000   18.13265000   12.63428000      0.060281    0.50543800    0.39268200
Se    2.11501000   20.93615000   16.57750000     -0.457558   -0.13286600    0.16536600
Se    3.12186000    4.19051000    5.33884000     -0.396967    0.35361200   -0.27101500
Se    5.47359000    6.81680000   18.45575000      0.347586    0.02719600   -0.23116000
Se    5.95368000    8.76250000    6.82548000     -0.223578    0.07448100   -0.26233800
Se    3.45017000    7.43255000   17.48158000      0.208012   -0.23393500   -0.37279900
Se    6.09864000   14.16643000   11.46203000     -0.471367    0.82056600   -0.06567900
Se    6.55593000   17.53675000   18.39133000     -0.465761    0.51187600   -0.31224100
Se    8.87439000   19.52216000    6.89035000      0.482956    0.44735200    0.86371700
Se    6.31100000   19.89256000   17.43715000      0.320438   -0.56083900    0.46357200
Se   10.68863000    1.41955000   11.34387000     -0.023159   -0.19857800    0.46368500
Se   12.21105000    4.47165000   17.63585000     -0.447280    0.70923900   -0.69586700
Se   13.50319000    7.55649000    7.77806000      1.482291   -0.96595600   -1.62338200
Se   13.85377000   11.25309000   16.59436000      0.448485   -0.28224600   -0.16911500
Se   10.68679000   15.54983000    7.22788000     -0.432322   -0.47523200    0.37622800
Se   14.82708000   16.30142000   18.32977000     -0.817637   -0.25320200   -0.19648400
Se   12.66206000    0.28200000    7.08475000     -0.662871    0.04358900   -0.07975100
Se   13.36588000   21.38093000   18.33020000     -0.581449    0.37525700   -0.83634600
Se   13.25228000    3.31948000   10.04507000      0.077433    1.13258400   -0.15217000
Se   21.84285000    3.71470000   16.04743000      0.363810   -0.17365500   -0.11802000
Se   19.39701000   11.23124000   10.19226000     -0.243178   -0.30592500   -0.02426800
Se   17.12921000    9.23343000   16.51409000     -0.288256    0.25030100   -0.97098400
Se   13.61591000   16.00635000    5.54674000      0.907078   -0.79610200    0.94831000
Se   20.89387000   13.37538000   15.04667000     -1.258327    0.35965700   -0.49966600
Se   20.08551000   20.47159000    7.55398000      0.648666    0.40479000   -0.63627200
Se   18.38202000   19.27829000    2.54415000      0.623925    0.36790700   -0.11862900
Se    4.59320000    2.29758000    8.86767000     -0.365085   -0.21378800    0.42899400
Se    2.55560000    3.56631000   18.68225000     -0.360577   -0.70576800   -0.00224000
Se    9.06874000   10.19926000    6.82400000     -0.423748   -0.86957000   -0.47003400
Se    4.64715000    9.49194000    1.14538000      0.154181    0.58231800   -0.00414600
Se    6.54280000   16.50281000    5.92463000     -0.329280    0.35720900   -0.16605700
Se    4.48342000   10.80203000   17.39477000      0.000182    0.71173300    0.09497500
Se    0.41121000   19.38763000    9.88620000      1.314890    0.89604900   -0.38716100
Se    1.22108000   17.88298000    1.14194000      0.842166    0.64740600    0.77925200
Se    8.85404000   22.36746000    8.85986000      0.006441    0.20711600   -0.15540900
Se    7.10968000    3.09962000    0.57265000      0.470833    0.41388900    0.81678900
Se   10.71703000    4.99397000    9.39663000      0.211152    2.00668700    0.08391700
Se    8.67310000    5.89194000   17.73322000     -0.043524   -0.32525100   -0.07220200
Se    8.63108000   12.54745000    5.84297000      0.334337    0.39216300   -0.39204600
Se    8.38173000   13.80550000   17.30670000      0.792163   -0.04530500    0.12831100
Se   12.06219000   20.64290000    9.96713000     -0.695784   -0.32666700    0.45441300
Se   12.37915000   13.17913000   18.48756000     -0.834860    0.11661400   -0.09078600
Se   15.31609000    0.70453000    7.51735000      0.970251    0.29897300    0.11207900
Se   15.44951000    2.38510000    0.56083000     -0.526614    0.19474700   -0.56455600
Se   17.07251000    3.60662000    8.98187000     -1.004892   -0.56320300   -0.46841800
Se   13.49321000    7.69826000   15.45640000      0.484113   -0.01330700   -0.14792600
Se   16.91973000    9.10751000    8.65536000      0.169490   -0.60761400    0.55233500
Se   15.37803000   14.17317000    0.57804000     -0.683289   -0.59367300   -0.02711000
Se   12.37994000   17.93229000    5.51640000     -0.560041    1.69536700   -0.75484700
Se   17.45962000   18.43837000   17.81367000      0.041324   -0.21379000   -0.00044400
Se   21.04028000    2.64894000   10.14422000     -1.193268   -0.40745200    0.20899000
Se    0.18914000   21.79203000   14.11789000      0.816165    1.19465100    0.81118000
Se   20.02982000    8.47523000   10.01209000     -0.805310    0.55968900   -0.31486400
Se    0.16346000    5.98608000   17.59045000     -0.905919   -0.32275100    0.76663500
Se   21.02323000   11.98617000    7.10660000     -0.021968   -0.39647000   -0.34182000
Se   19.80328000   10.64950000   17.21718000      0.095211    0.10723200    0.80801600
Se   18.94299000   16.95898000    8.04913000      0.397114   -0.07520800   -1.59936400
Se   19.19622000   17.54663000   15.22125000     -0.205663   -0.47878500    0.08230100
Se    3.18682000   21.50043000   10.85339000     -0.670120    0.43216300    0.80962600
Se    2.17570000    2.20932000   14.86985000      0.228627   -0.94186100   -0.86062300
Se    0.26747000    8.12596000    8.08902000     -0.138737   -0.54469900   -0.47199800
Se    1.78567000    9.66933000   15.58351000     -0.379505    0.10015500   -0.80573500
Se    3.11368000   15.55052000    7.48769000     -0.564422   -0.42588800   -0.44552100
Se    3.08164000   12.81257000   16.29127000      0.719580   -0.06068700   -0.12381300
Se    0.79727000   16.67014000    7.68742000     -0.238669   -0.90760300   -0.14839000
Se    2.95947000   20.31227000   13.70512000     -0.560890    0.15485000   -0.55635300
Se    5.81350000    0.63574000    2.59569000      1.185089   -1.02747200    0.43918600
Se    6.79713000   21.24861000    0.68070000     -0.361145   -0.16740700   -0.35385600
Se    9.75898000    5.90132000    6.14314000     -0.405289    1.14085100   -0.31062500
Se    4.52803000    4.60723000   13.67934000     -0.385741   -0.60996200   -0.58239600
Se    4.69562000   13.38392000    5.40513000      0.138990   -1.24053300    0.70635200
Se   10.41895000   14.21396000   14.65125000     -3.048687    0.38606000    1.56025300
Se    6.96185000   18.05831000    4.06214000      0.289842   -0.76364700    0.15067400
Se    8.41256000   17.06793000   15.02508000     -0.363878    0.68193900   -0.22571500
Se   13.30663000    0.49144000    3.48986000      1.247594   -1.06797500    0.09917200
Se   13.33911000    0.51806000   16.34095000     -0.209073   -0.52708200   -0.07577900
Se   13.83893000    9.51452000    4.51136000      1.796092    1.73484600   -1.44492700
Se   11.35168000    5.80298000   13.66732000      0.284535   -0.32213100    0.32218300
Se   14.35602000   12.06801000    5.61424000     -0.568483    0.01432100   -0.20641100
Se   13.65366000   15.02700000   15.70855000      0.535139   -0.84907300   -0.18659600
Se   11.82990000   19.38193000    7.66135000      0.317273   -0.33282200    0.32869100
Se   11.80774000   18.94894000    0.47888000      0.236641    0.82721200    0.30776900
Se   19.44093000    1.55837000    6.67402000     -1.134330    0.56311700    0.24800000
Se   20.29889000    1.30889000   15.92576000     -0.725816    0.38218700    0.37596500
Se   20.05760000    5.39942000    7.48303000     -0.318106   -0.15786200   -0.20191800
Se   19.30103000    6.54373000   15.98864000     -0.045161    0.54968300   -0.17705000
Se   18.98438000   12.93644000    3.56950000      0.566649   -0.80950000    0.00247000
Se   17.20480000   14.42292000   13.51659000      0.090220    0.17279500   -0.34366000
Se   16.89485000   17.80610000    4.29893000     -0.460436    1.12384400   -0.10686500
Se   16.92111000   20.93381000   15.70897000     -0.369310   -0.75361600   -0.03242200
Se    2.06722000    8.21543000    5.15389000      0.415753    0.41579200    0.56284500
Se    3.13302000    7.09823000   13.49172000      0.140344    0.18093000   -0.50741600
Se    1.22997000   12.30778000    4.28693000     -0.543768   -0.02892600    0.81220300
Se    4.42940000    9.65529000   14.76879000      0.385520    0.58592500   -0.07418200
Se    5.43015000   14.48567000    8.09149000      0.579263   -0.42329000   -0.39287500
Se    3.74277000   16.61133000   17.05306000     -0.219072   -0.16743500    1.02574500
Se    3.01207000   20.40837000    7.59015000     -0.041168    0.60893900    0.15055100
Se    6.18067000    0.34196000   14.68599000     -0.136120    0.22132700    0.00154200
Se    8.94636000    1.00682000    5.53292000     -0.612305    0.03005400   -0.67998600
Se    7.37682000    1.73170000   17.65568000     -0.178845   -0.01936100   -0.12841100
Se   12.67156000   11.62776000    8.97059000      0.367247    0.05264000    0.62214200
Se    9.65308000    9.73049000   17.52293000      0.352217   -0.70486900    0.07117700
Se    8.27085000   14.53386000    8.15527000     -0.310896    0.34854300    0.37606900
Se   11.65020000   16.86386000   13.58848000     -0.281554   -1.68882000    2.13697900
Se   10.97295000   20.56423000    4.25519000     -0.141116    0.33130500    0.03372900
Se   10.30980000   17.82862000   17.40040000      0.231135    0.59453600   -1.92781400
Se   10.32654000    3.63677000    5.31976000     -0.436721   -0.26564600    0.15070800
Se   17.39343000    4.12718000   16.76492000     -0.020222   -0.30849200    0.26188800
Se   17.59701000    7.50971000    5.65139000      0.332869   -1.37559000    0.10113100
Se   17.29996000    8.86900000   12.81407000     -0.308601   -0.28755400    0.11104400
Se   17.53013000   10.38556000    4.96855000      0.216701    0.90409000    0.08242200
Se   14.09994000   17.72520000   16.25212000     -0.233172    1.81174900   -0.24401100
Se   15.60613000    3.04179000    4.45084000     -0.317809   -0.17699900    0.06290000
Se   18.99501000    2.63585000   12.21626000      0.240840    0.42520900    0.50077100
Se   22.50442000    3.31254000    5.74537000      0.628300   -1.18016400    0.08420800
Se    1.82849000    4.34451000   15.74047000     -0.257853    0.30368700    0.08018500
Se   17.92718000   13.47837000    7.45841000     -0.182915   -0.57136100    0.33409500
Se   22.43395000   13.15599000   13.27358000     -0.060011   -0.42702800   -0.10017300
Se   19.72259000   15.47754000    4.78811000      0.566432   -0.41065000   -0.23621700
Se   19.95616000   19.88357000   13.73063000     -1.022901   -0.62986000    1.00474000
Se   21.34441000   17.83090000    9.53904000     -0.679488   -0.86409800   -0.13074700
Se   20.57138000   19.75784000   17.22487000     -0.453570   -0.22008400   -1.50907200
Se    3.29892000    1.06479000    5.89028000      0.183246   -0.11318200   -0.79821000
Se    6.99768000    3.18198000   14.80151000      0.962750   -0.58083200   -0.57487200
Se    1.78223000    7.26852000    2.64521000     -0.597101    0.01358400   -0.94676400
Se    5.74941000    6.88776000   11.60157000     -1.001330    1.17538100   -0.59928600
Se    1.45062000   14.90470000    1.86920000     -0.512737    1.25558800    1.54377000
Se    5.94644000   15.31351000   14.73787000      0.147567   -0.35158700   -0.91286600
Se    4.70569000   17.96392000    3.23892000     -0.028383    0.38991000   -0.25779100
Se    5.32033000   17.63962000   11.64502000      0.059125    0.54560800    0.18288700
Se    9.97142000    1.26381000    2.57693000     -0.268222    0.47708600    0.04356800
Se   10.37119000    0.87724000   16.51660000      0.208326   -0.39358700   -0.00360700
Se   10.03962000    8.54553000    2.91336000     -0.430125   -0.53793900   -0.61383200
Se    7.23038000    6.94007000   14.72046000      0.192588    0.37129400   -0.48502000
Se   10.88320000   11.80020000    4.34721000     -1.195432   -1.67351500   -1.85973900
Se    9.85834000   11.35545000   12.39164000     -0.044078   -0.24563800   -0.02036400
Se    8.89449000   19.93268000    1.05535000     -0.648052   -0.33224500    0.93463700
Se   16.65485000   18.19840000   12.51182000      0.170108   -0.53748200   -0.00490000
Se   13.97878000    3.97285000    5.92428000     -0.551855   -0.53184600   -0.03706200
Se   15.74473000    0.84237000   15.93038000      0.405964    0.31973000    0.37126100
Se   16.78026000    5.12681000    4.32635000      0.153419    0.47311600    0.02722700
Se   13.16093000   10.18466000   10.89916000     -0.323689   -0.08699400    0.15814500
Se   15.83437000   11.42577000    2.39436000     -0.054672    0.46172500    0.08940800
Se   17.60960000   12.75406000   16.47347000     -0.359066    0.64421800   -0.55472600
Se   16.20078000   16.52341000    2.42833000     -1.667404    0.09432200    0.83056900
Se   14.48466000   21.84204000   12.21086000     -0.131714    0.63802100    0.18645700
Se    0.15401000   19.83079000    6.68028000     -0.650049    0.68399200    3.42122400
Se   20.63824000    0.99016000   13.64063000     -0.096055   -0.16927900   -0.97966500
Se   21.33170000    6.19323000    4.29823000     -0.578174    0.74750600   -0.52020900
Se   20.09782000    8.35069000   14.24764000     -0.336985   -0.38550700    0.44784000
Se    0.15405000   14.41625000    6.06558000      1.189182    0.14774700   -0.44683500
Se    1.63536000   14.31109000   14.34225000      0.488482    0.46597700    0.75443800
Se   20.78427000   18.01698000    3.86406000      0.527282    0.35246800    0.45774700
Se   21.06501000   21.13470000   10.37543000      0.769656    0.13986400    0.32911700
Se    2.51752000    3.77339000    2.95864000      0.451444    0.36338700    0.32108000
Se    1.74139000    3.62156000   10.54007000      0.706845    0.14189600    1.40811900
Se   21.73121000   10.61770000    1.50772000     -0.515926    0.07077700    0.51604100
Se    1.13657000    9.47127000   11.65986000      0.183900   -0.37048600    0.42322900
Se    0.73392000   16.96369000   17.99575000     -0.490269    0.20453100   -0.60565000
Se    3.99209000   16.11205000   13.38911000      0.349147   -0.14004000    0.42333200
Se    1.82669000   21.17963000    3.07176000     -0.554942   -0.85924900    0.00162500
Se    5.09455000   20.29178000   14.49834000      0.534457   -0.31003100    0.66202300
Se    6.30347000    3.44615000    3.98313000      0.980687   -1.18513000   -0.30291600
Se    9.45352000    3.61406000   15.12930000      0.204884   -0.12942800   -0.55184800
Se    4.54390000    6.13232000    5.22563000      0.332184   -0.30160900    0.10248900
Se    8.16384000   11.10443000   15.84699000     -0.223555   -0.25348000   -0.30742700
Se    7.10976000   14.33133000    1.13427000      1.229181    0.46781200   -1.45212300
Se   11.44654000   14.54637000   11.23331000      0.235238   -0.37921100   -1.35984900
Se    6.55421000   20.75339000    6.34916000     -0.725454    0.17863400   -0.35421300
Se   10.28093000   20.44973000   13.82051000      0.966530   -0.08114900    0.75492500
Se   12.96707000    3.91301000    2.37183000     -0.622625   -0.41257200    0.20044700
Se   13.53682000    6.78206000   10.84255000     -0.079374    0.17747000    0.83359900
Se   13.37854000    7.30714000    2.49073000      0.485708   -1.08502400    0.44120700
Se   11.63756000    9.62466000   14.46563000     -0.527127    0.29217800    0.02591300
Se    8.64803000   14.63009000    4.46549000     -0.198064   -0.09617600   -0.11515500
Se   15.16957000   13.75171000   10.44934000      0.278808   -0.48835100   -0.13288100
Se   14.99830000   20.57090000    3.71406000      0.071087   -0.05339200   -0.84332300
Se   13.99835000   19.85337000   13.58223000     -0.460017   -0.22134800    0.94875300
Se   18.75390000    6.06652000    1.29894000     -0.637179   -0.22170800    0.41946800
Se   15.27501000    6.07562000   14.97600000     -0.447894   -0.28385500   -0.51779800
Se   19.35379000    8.52679000    4.06516000      0.747947   -0.17074000   -0.25220900
Se   19.62115000   13.92622000    9.99649000     -0.259970   -0.50587200    0.41229600
Se   21.78197000   14.46683000    1.28213000     -0.826256   -0.31404400    0.98125000
Se   17.53201000   16.98923000    9.83483000     -0.635761   -0.97158600    1.29102600
Se   17.56785000    0.27832000    3.67522000     -1.644769    1.15255500    0.19313500
Se   16.53583000    1.15968000   10.84196000     -1.074664    0.76303600    0.66333100
