384
22.54784000 22.54784000 18.93360000
Ge    5.74595000    4.31523000    8.75866000      0.836664    0.56225400    0.69765000
Ge    4.28101000    8.12513000    2.98044000      0.011141   -0.40198900    0.24744400
Ge    2.04170000   12.09218000    6.81586000      0.413877    0.47829800   -0.07774700
Ge    6.94158000    8.60242000   16.36871000      0.215993    0.36975600   -0.50292200
Ge    3.25616000   13.88327000   10.55139000      0.339236   -0.16346600   -0.36620100
Ge    8.66933000   17.49574000    0.26681000      0.073711    0.41368700   -0.49008600
Ge    6.65640000   18.52335000    8.02562000     -0.264464   -0.79903700    0.09512000
Ge    4.57037000    3.40879000   15.84459000     -0.152536   -0.30318500   -0.57221900
Ge    9.36669000    7.08540000    8.56383000     -0.836937    0.69737700   -0.10904000
Ge   11.17445000    6.63666000    1.51036000      0.140671    0.17426100   -0.43058100
Ge   11.95531000    8.32065000    9.87863000      0.462367   -0.04691900   -1.50683700
Ge   10.23882000   12.21062000    0.29852000     -0.037168   -0.52889700   -0.00327800
Ge   11.04881000   17.67426000    9.25585000      0.278116   -0.06561100   -0.18125000
Ge   12.42837000   16.19469000    0.73755000      0.048743    0.22373600   -0.54413300
Ge    9.64901000   21.28923000   11.17065000     -0.511466    0.36378100    0.04094800
Ge   13.23460000    1.23271000    1.00482000      1.041722   -0.14632700    0.69348600
Ge   18.79687000    5.39340000    9.99817000      0.243943   -0.21748200   -1.43727600
Ge   17.85278000    7.54070000   18.05286000      0.343980   -0.29552800    0.81138200
Ge   17.23803000   14.79825000   10.80124000     -0.336267   -1.24260900    1.04505200
Ge   17.34442000   10.69093000   18.04048000     -0.643150    0.33043000    0.70463900
Ge   12.85176000   14.30686000    9.28968000     -0.564774   -0.23839800   -1.26979700
Ge   17.45414000   15.38250000   17.65289000     -0.738179    0.27627300    0.29587500
Ge   14.82948000    3.59508000   11.64008000     -0.131595   -0.03392300   -0.22251700
Ge   18.55116000    2.50799000   18.09748000      0.355789   -0.73536900    0.10036400
Ge    0.86919000    6.07507000    9.48086000     -0.916688    0.53262100    0.07625400
Ge   20.40465000    3.91101000    4.49650000     -1.358478   -0.95362100    1.62073500
Ge   21.68305000   10.90414000    9.46340000      0.626797   -0.38104800    0.05209700
Ge   20.17327000    9.15789000    0.06185000      0.119466   -0.87768700    0.61891300
Ge   20.27733000   14.48471000    7.08243000      0.127590    0.07578400    0.49957100
Ge    5.41841000   14.81247000   17.19500000      0.193243   -0.83321200   -0.58686300
Ge   17.73831000   22.14449000    6.93611000     -0.054970   -0.00791100    0.04171100
Ge   22.27785000   19.53684000    4.65208000      0.669664    1.17293600    0.90194800
Ge    3.89022000    7.72232000    6.81564000     -0.369040    0.15632200    0.89809800
Ge    1.42930000    7.61082000   18.93255000      0.490663   -0.76899500   -0.32211300
Ge   20.61433000   11.04883000    3.63211000      0.715286   -1.22324900   -0.48926800
Ge    4.49048000   12.20063000   14.13184000      0.017447    0.17024300    0.28529100
Ge    3.44931000   15.33450000    4.63561000      0.179547    0.08875500    0.60999900
Ge    1.09796000   20.53689000    0.96346000     -0.689480    0.90019700   -0.01229400
Ge    2.88845000   18.26895000   10.74879000      1.181882   -0.29181600   -0.47460100
Ge    0.64525000    1.78449000   17.14147000     -0.193559   -0.40833800    0.22455800
Ge   10.09992000    2.38475000    8.66411000      0.180599    0.37140400    0.20419900
Ge    6.20624000    5.19636000   16.68163000      1.320438    0.20391500   -0.42704300
Ge    8.42597000    7.86647000    4.66430000      0.649129    0.83298800    0.63105900
Ge   11.09891000    6.62594000   16.16785000     -0.534569    0.19123900   -0.06422100
Ge    6.74367000   16.10376000    9.52642000     -0.512182    1.07963200   -0.23872700
Ge   10.84855000   14.79040000   17.34779000      0.251297    0.89395700   -0.74515600
Ge   10.13237000   21.88794000    6.84795000     -0.642447    0.01042800   -0.71094200
Ge   11.12125000    1.42711000   13.69378000      0.422177   -0.05977300    0.84080800
Ge   11.78687000    8.03080000    5.60448000      0.259016    0.00182400    0.28349200
Ge   15.30779000    3.40487000   17.01442000     -0.982994   -0.68923400   -0.68599400
Ge   15.55112000    8.79147000    6.44180000      1.139239   -0.04059300    0.46554300
Ge   15.42932000   13.19686000   15.49804000     -0.154514   -1.03625700    0.08096000
Ge   11.93646000   13.77058000    5.92892000     -0.034017   -0.15431100   -0.07097500
Ge   15.52819000   19.51884000   18.05202000     -0.490746    1.03561800   -0.44678500
Ge   13.93902000   20.97991000    8.21096000      0.306385    0.30720800    0.40217800
Ge   18.69848000   21.61499000   13.60402000     -0.668194    1.01843300   -0.48463400
Ge   22.12281000    4.11011000    8.13914000     -0.487389    0.20882900   -0.06862300
Ge   20.72328000    5.74331000   14.28826000      0.316719    0.21556600   -0.27706100
Ge   18.65099000   10.97763000    7.39281000     -0.265261   -0.72714100   -0.32215300
Ge   22.44718000   14.86323000   16.55169000      0.235299   -0.77200000   -0.29392900
Ge   17.31411000   16.03205000    6.09637000      0.664768    0.07954000   -0.84455100
Ge   16.73534000   18.48550000   15.41566000     -0.058654   -0.23780200   -1.07942800
Ge   21.25103000   22.39566000    6.51681000     -0.089086    0.55535400   -0.11831400
Ge   18.84119000   21.93220000   17.29711000     -0.300426   -0.13090300    0.19512300
Ge    6.37695000    0.59186000    7.47047000      0.667315    1.21821000   -0.60691500
Ge    3.37152000    2.53996000   12.55406000      0.389920   -0.69023800   -0.34310100
Ge    0.07568000   10.86985000    5.28144000     -0.441061   -1.42496700    0.16787600
Ge    2.93796000    7.70106000   10.60270000     -0.170982   -0.34412300   -0.43764600
Ge    0.38883000   16.72128000    3.92764000     -0.895545   -1.12900100   -0.14063800
Ge    3.44388000   17.87760000   15.30222000      0.495499   -0.21947500   -0.05183600
Ge    5.16244000   21.61856000    9.11027000     -0.786337   -0.26563200    1.11921300
Ge    8.85548000   19.92957000   16.10281000     -1.006336    1.02139000   -0.49153300
Ge    5.30840000    5.11276000    1.44999000      0.028194   -0.43980500    0.63005300
Ge    9.68878000    3.53752000   17.81670000     -0.255649   -0.54677000   -0.40664400
Ge    7.06276000    4.69573000    5.39737000      0.282150    0.10530100   -0.70891500
Ge    8.83492000    9.61831000   13.30975000     -0.679913   -0.34519700    0.52478900
Ge    5.36987000   14.38977000    2.95591000      0.071003   -0.31596700   -1.12048700
Ge   10.53058000   11.31022000   16.15523000     -0.832386    0.21828400    0.29861200
Ge    7.09992000   21.08147000    4.07234000      1.578205   -0.33386400   -0.41452200
Ge    9.33745000   16.34459000   12.85658000      0.430571   -0.18524500   -0.10942200
Ge   12.13723000    1.86691000    5.03636000      0.331336    0.07545900   -0.55542800
Ge   13.37757000    4.08460000   15.05850000      0.379688    0.14244700    0.19058300
Ge   17.65619000    3.82280000    6.49368000      0.255477    0.04429100    0.50196400
Ge   15.07835000    9.52442000   15.26446000     -0.481872    0.52550500   -1.21953700
Ge   14.81836000   13.31358000    3.34550000     -1.220609    1.16977300    0.06249700
Ge   13.48837000   15.39623000   12.38732000     -0.169098    1.59634400   -0.34236900
Ge    9.64892000   18.46766000    4.66134000      0.041223    0.41215000    0.60087500
Ge   12.40565000   20.27685000   16.03573000     -0.237682   -0.27348500   -0.45959100
Ge    0.96617000    6.14386000    5.87635000     -0.351984    0.31106900    0.46338300
Ge   22.19534000    3.97745000   12.09478000     -0.065182    0.10545000   -0.13027800
Ge   20.44067000    8.10703000    7.35977000     -0.787156    0.01632400    0.04289600
Ge   17.07411000   11.72181000   12.13333000      0.506867   -0.55547300   -0.49596400
Ge   21.23552000   16.84191000    0.66268000     -0.134812   -0.42912000   -0.45939000
Ge   19.44377000   15.30004000   14.20358000     -0.641755   -0.48835500   -0.79420600
Ge   18.67287000   20.68700000    4.84440000     -0.096554   -0.15805500   -0.03926600
Ge   21.96605000   20.12816000   12.58168000     -0.567214    1.48684700    0.46721700
Ge    3.09384000    1.49026000    2.92780000      0.799297   -0.79751400    0.13928800
Ge    5.88245000    1.25972000   12.06256000      0.394176   -0.45252200   -0.04156200
Ge    5.96108000    9.45519000    4.53002000      0.121979    0.59737800   -0.77470400
Ge    6.96236000    4.84583000   12.62271000     -0.089896    0.16473700   -0.02599500
Ge    5.09501000   11.96922000    0.36230000      0.602323    1.96348600   -0.24843500
Ge    4.60212000    9.95011000   11.64989000     -0.179688    0.52138500   -0.15284900
Ge    2.58753000    0.35620000    8.46812000      0.123729    0.31866100   -0.05609500
Ge    7.15695000   18.60814000   13.59238000      0.181060    1.34494900   -0.62311500
Ge    8.68912000    3.86192000    3.37153000     -0.173812    0.21516600   -1.92031600
Ge    9.73648000    4.37154000   11.59866000     -0.012849   -0.06502600   -0.01658200
Ge   12.55128000    9.56761000    2.54832000     -0.625242   -0.91550000   -0.94871200
Ge   11.78196000    8.15811000   12.42954000      1.060907   -0.46513200    1.13865600
Ge    9.28919000   13.83879000    2.14759000     -0.307202    0.43165200    0.02024700
Ge    8.65077000   13.41543000   10.41397000     -0.074583   -0.16731700   -0.13348800
Ge   10.63982000   21.39167000    1.67447000      0.396788    0.05438000    0.15404500
Ge   11.76694000   19.17479000   12.38612000      0.004821   -1.50058900    0.11212700
Ge   22.52033000   21.73935000   16.50791000     -1.642802    0.46229500   -0.10386700
Ge   13.89807000    0.94772000   10.01154000     -1.225128    0.44976800   -0.65971700
Ge   16.27015000    6.90890000    2.29587000      0.810930    0.20747200    0.47097900
Ge   16.31536000    6.86174000   12.51133000     -0.828389    0.60752000   -0.19371100
Ge   18.20388000   12.60783000    1.19692000     -0.151042    0.45489500    0.21696600
Ge   15.29448000   16.54127000    7.77172000     -0.436936   -0.87281200    0.93123700
Ge   16.82162000   20.92335000    2.35772000     -0.025602    1.65708000   -1.46787400
Ge   16.39231000   20.33943000   11.28474000     -0.843916   -0.42592400    0.57388800
Ge   19.60097000    1.38002000    3.17564000     -0.661081    0.55672100   -0.00793100
Ge    0.48176000    1.40136000   10.96816000     -0.533315   -0.58166900   -0.38048900
Ge   21.53769000    7.84491000    2.16616000     -0.068516    0.11479900   -0.15666600
Ge    0.18808000    8.88827000   14.18431000     -0.582097   -1.00724700    0.46466000
Ge   20.43151000   12.73590000   18.46761000      0.727867    0.84344700    0.59667800
Ge    0.08587000   15.50254000    9.93814000     -0.478170   -0.54867300   -0.25362000
Ge    4.07387000   21.38668000    5.67603000     -0.704020   -1.12394700   -0.51661500
Ge   19.08977000   18.21684000   11.78814000      0.762042   -0.42075900   -0.17414100
Se   20.26537000    0.56759000    0.74609000     -0.909922   -2.46370500    0.93913100
Se    0.16547000    0.95478000    8.41974000      0.883791    0.05447000    0.57553900
Se    4.58885000   11.62263000    4.06717000     -0.185705   -0.21462000   -0.66968500
Se    0.78834000    6.44809000   14.14548000     -0.573119   -0.24466700    0.33110000
Se    0.08552000   12.53348000   17.43874000      0.398703    0.42224300    0.05487300
Se    1.17762000   12.93111000    9.17472000     -0.216161   -0.00769000    0.34532300
Se    2.07315000   18.30297000    4.35697000      0.733053    0.07996800    0.65909200
Se    2.02657000   15.92812000   11.65869000     -0.102637   -0.42996500   -0.91089300
Se    3.98606000    2.09653000    0.35986000      0.085997   -0.29837600    0.29539900
Se    7.61577000    3.04806000   10.67966000     -0.672406    0.10514000   -0.19570000
Se    7.14071000    6.65267000    3.05124000     -0.436579   -0.24964800   -1.20042300
Se    9.65666000    7.42260000   11.68369000     -0.878376    0.11256500   -0.17150800
Se    7.67514000   10.26243000    1.16539000     -0.098343    0.44490100    0.19512200
Se    6.58878000   11.09396000   12.73951000      0.744058    0.12605900   -0.50524600
Se    4.77890000   20.70851000    3.27096000     -0.946891   -1.43729400   -0.27711400
Se    9.12004000   18.42974000   11.22197000     -0.261231   -0.43987000    0.32685500
Se   11.08759000    2.57134000    0.86201000     -0.518820    0.08598700    0.84671200
Se   13.72287000    1.94109000   13.50443000     -0.652287    0.26284100    0.27044800
Se   11.87872000    8.59085000   18.90441000     -0.424492   -0.39040600   -0.20898100
Se    9.90406000   11.15078000    9.31696000      0.182324    0.31545800    0.14500900
Se   12.99320000   15.14756000    2.86258000     -0.366702    0.07203300    0.37233400
Se   11.23393000   10.48339000    6.89145000      0.095912    0.33285000   -0.32457700
Se   14.32000000   18.87510000    1.16975000     -0.097315   -0.48618300    0.59685400
Se   13.47116000   16.66700000    9.61350000      0.299863    0.89773300    0.24637800
Se   18.37736000    3.41330000    1.51868000     -0.007663    1.15442900    0.23341200
Se   17.02256000    1.73872000   13.47286000     -0.442084   -0.15113100    0.48293400
Se   15.50014000    6.90567000   18.46449000     -0.580360    0.29976400   -0.63629500
Se   18.12992000    5.10707000   12.28100000     -0.824598    0.38632200    1.63524700
Se   17.80698000    9.44634000    1.51017000      0.854439    0.09892300   -1.06955600
Se   16.21524000   13.75198000    5.35085000     -0.199929    0.58135200    0.13490000
Se   20.59698000   19.63845000    0.91602000      0.510044    0.69059300   -0.84909300
Se   17.18644000   19.61887000    9.05142000     -0.204384    0.32209300   -1.15357900
Se    0.81013000    0.66728000    2.71460000     -0.212871   -0.00874300    0.05494500
Se    6.85189000    6.91788000    9.21454000     -0.252881   -0.45117500    0.05439000
Se    7.52736000   11.37576000    3.24816000     -0.006271   -0.50934900   -0.42505900
Se    5.30301000   10.58247000    9.28072000     -0.603231    0.30764500   -0.06465300
Se    3.46714000   13.79099000    0.73945000      0.590306    0.15382900    0.88311500
Se    2.90935000   11.96921000   12.16508000     -0.302660    0.22209600    0.59089000
Se    2.29343000   22.27332000   18.33218000      0.520390   -0.58600600    0.44137500
Se    6.42191000   20.01032000   10.37917000      0.384619   -0.76307300   -0.12972200
Se   12.81466000    5.82207000    4.68497000      0.448031    0.04033300   -0.27783200
Se    7.65319000    3.51911000    7.39551000     -0.286459   -0.53473200    0.66558300
Se   12.37495000   11.94176000    2.13169000      0.352791    0.68906500   -1.23652100
Se    7.56757000   10.55143000   10.16560000      0.123543    0.07382500    0.57985400
Se   10.15880000   16.25049000    1.88789000      0.115193    0.18894600    0.07817000
Se   12.65161000   13.67390000   13.71051000     -0.649645   -1.20958700    1.55971600
Se    9.72812000   21.76108000   17.84590000     -0.111705   -1.13398600    0.63133900
Se    7.58176000   21.83343000   12.72226000     -1.019194    0.87977000    0.32263200
Se   14.98622000    5.12294000    1.01357000     -0.675904   -0.92176100    0.04330700
Se   16.61336000    6.29665000    9.06202000     -0.202034   -0.06879400    0.15362300
Se   14.97984000   11.26800000    0.18504000      0.057725   -0.66464600    0.06240000
Se   15.06172000   11.79592000   13.47271000     -0.816831   -0.45960900    0.75846000
Se   18.53860000   15.58191000    1.10718000     -1.194595   -0.28625600    0.16329900
Se   15.59342000   11.00921000    9.93731000      0.546826   -0.43975900    0.08465500
Se   16.37255000   22.15783000    0.02686000      0.510685   -0.76797900    0.42795600
Se   15.39991000   18.86806000    7.42244000      0.905347    1.37614400   -0.33627100
Se   21.97811000    4.10371000    2.77351000      1.487920   -0.58737600   -1.38167200
Se   21.11941000    6.50867000   11.23626000      0.345188    0.12729600   -0.16855400
Se   21.39022000    5.55181000    0.67681000     -1.238026   -0.11527200    0.09064900
Se   21.50099000   10.24890000   12.18058000     -1.260608    0.97134300    0.17888200
Se   19.91718000   15.28997000   17.52954000      1.360302    0.05948200   -0.02949300
Se   20.49977000   15.93469000   12.22361000      0.122119    0.43977600   -0.67728700
Se   20.70881000   21.86464000    4.01841000      0.186242   -0.87576200    0.07862100
Se   18.46053000   21.39428000   10.77211000      0.853447    0.45116500    0.91726800
Se    2.96168000    5.70389000    8.32612000      1.201324    0.21563800   -0.94223600
Se   21.35001000    2.35339000    0.01626000      0.693883    1.60489600   -0.70235900
Se    2.92515000    9.61120000    8.96042000      0.092711   -0.34129500   -0.31176600
Se    0.63450000    9.49761000   17.61779000     -0.168609    0.43121100   -0.07092900
Se    3.98168000   17.64571000    8.14221000     -0.320897    0.19150500    0.35402800
Se    0.92387000   17.99129000   15.14328000     -0.076271   -0.26251500   -0.13646100
Se    0.80455000   18.26480000   12.50033000     -0.534576   -0.75572600    0.89771800
Se    2.03938000   20.70222000   16.50964000      1.494460   -0.87307400    0.32290100
Se    2.87451000    4.41219000    5.19849000      0.090110   -0.20539200    0.67238400
Se    5.59972000    6.80625000   18.42930000     -0.058161    0.81417600    0.43584400
Se    6.32044000    9.01642000    6.85520000     -0.250009   -0.15422700   -0.04038100
Se    3.43036000    7.27237000   17.50313000     -0.119038   -0.09838800   -0.24013400
Se    6.28786000   14.55980000   11.25479000      0.476176   -0.59624300    0.48694800
Se    6.27401000   17.74178000   18.24752000     -0.127746   -1.35887700    0.55593700
Se    9.05068000   19.58289000    6.94720000     -0.231945   -0.55844100    0.22256700
Se    5.94292000   19.69723000   17.20879000      0.522658    1.13149300   -0.68788500
Se   10.56332000    1.59879000   11.42603000     -0.187149   -0.00339300   -1.15468400
Se   12.29712000    4.88807000   17.40620000     -0.065010   -0.50126600    0.36248700
Se   13.46915000    7.90835000    7.49924000     -0.427271   -0.47917700    0.45188900
Se   13.99749000   11.09630000   16.62453000     -0.168231    1.04875000    0.64311000
Se   10.66739000   15.64662000    7.61496000     -0.203375   -0.19272900   -0.14548500
Se   14.89694000   16.24146000   18.19943000     -0.548350   -0.00940100   -0.03994000
Se   12.36286000    0.39924000    7.15896000     -0.398444    0.00067600    0.59250100
Se   13.33551000   21.40646000   18.09874000     -0.282691   -0.38921300    1.33204900
Se   13.36972000    3.51876000    9.60724000      0.244913   -0.82665100    0.29446200
Se   21.83571000    3.56187000   15.88367000     -0.216080   -0.00128000   -0.43351800
Se   19.32696000   11.43882000   10.29732000      0.046537    0.19007100   -0.22976000
Se   17.24265000    9.17757000   16.04613000      0.602255   -0.13793000    0.71337700
Se   13.83047000   16.07937000    5.91926000     -1.043683   -0.06941300   -0.67418000
Se   20.54646000   13.33656000   14.95013000      0.880410   -0.46690700   -0.17079200
Se   20.43499000   20.26668000    7.57134000     -2.072541    0.41702900   -0.10066000
Se   18.61852000   19.18928000    2.42639000     -0.599645    0.08923200   -0.36318700
Se    4.52167000    2.19168000    9.04437000     -0.532632   -0.38653500    0.21687800
Se    2.10138000    3.27869000   18.61351000      0.065207    0.55262200   -0.00377300
Se    8.63177000    9.99033000    6.88388000      0.307080    0.03150700    0.11868400
Se    4.73761000    9.85374000    1.16694000     -0.443837   -2.18422200    1.27789900
Se    6.46048000   16.52762000    5.94898000      0.237587    0.01856000    0.37538400
Se    4.18953000   10.63443000   17.45638000      0.484268   -0.70199100   -0.20594200
Se    0.68416000   19.10875000    9.76132000     -0.745402   -0.34198600    0.42432300
Se    1.16175000   18.16965000    1.14638000      0.769121   -0.97108300    0.09938800
Se    8.72398000    0.21538000    8.74314000     -0.235211   -0.92105100    1.09824700
Se    6.96903000    3.31966000    0.49016000      0.104117   -0.33782900    0.59430300
Se   10.63370000    5.23012000    9.37718000      0.537451   -0.91779800    0.23580100
Se    8.52884000    5.68364000   17.83037000     -0.467487    0.58124800    0.40185300
Se    8.74420000   12.67008000    5.37963000      0.093034    0.31072000    0.82469200
Se    8.60877000   13.78288000   17.12835000     -0.256878   -0.25509300    0.30518700
Se   11.79813000   20.48912000   10.12340000      0.578650    0.03346000   -0.15332900
Se   12.33936000   13.04960000   18.21483000     -0.352111    0.26588800   -0.00729500
Se   15.69776000    0.46186000    7.74985000     -0.613993    0.13370400   -0.10783500
Se   15.59935000    2.65753000    0.36663000     -0.386203   -0.45384500    0.88360900
Se   16.99526000    3.50873000    8.94532000      0.069628    1.05585400    0.00996500
Se   13.48823000    7.69467000   15.06551000     -0.040245    0.16366700   -0.10231000
Se   16.84745000    9.00778000    8.88685000     -0.323530    0.25626800   -0.09701200
Se   15.21578000   14.09965000    0.21288000      0.279091   -0.36436000    0.17630800
Se   12.21499000   18.27612000    5.20679000      0.861546   -0.06900300    0.22421100
Se   17.55175000   18.27110000   17.67396000      0.962318   -0.47812400    1.07910200
Se   20.83570000    2.87918000   10.19707000      0.205874    0.29421100   -0.20196400
Se    0.18884000   22.24452000   13.78460000      0.345661   -0.87572400    0.06956900
Se   19.98472000    8.25371000    9.82815000     -0.492795    0.31520900    0.49397300
Se    0.13737000    5.74047000   17.75106000      0.900299    0.58931200   -0.13198200
Se   21.11762000   11.82235000    7.10291000     -0.269298    0.24608100   -0.25791400
Se   19.76907000   10.76496000   17.25544000      0.040339   -0.38395800   -1.02462000
Se   19.12331000   16.99783000    7.62473000      0.089587   -0.68355700    0.11554700
Se   19.57111000   17.41218000   15.14208000     -0.166690   -0.24959000    1.24552800
Se    3.26033000   21.55620000   10.95337000     -0.266087    0.64131700   -0.29325200
Se    1.99058000    1.91819000   14.58876000      0.302868    0.58171500    0.28136700
Se    0.20048000    8.39533000    7.83079000      0.953606   -0.62505700    0.30697400
Se    1.94526000    9.86717000   15.42663000     -0.376762   -0.11957700    0.78749200
Se    3.21053000   15.36700000    7.51974000      0.448748    0.42948700    0.03051400
Se    3.25923000   12.49636000   16.51943000     -0.010445    1.50284300   -0.98853500
Se    0.66761000   16.23364000    7.42583000      0.264948    2.06490800    1.64753900
Se    2.74387000   20.37250000   13.29703000      1.081931    0.56760100    0.46569400
Se    5.75319000    0.18419000    2.56186000      0.591987    1.56285600   -0.66649700
Se    6.71403000   21.46805000    0.51682000     -0.215101   -0.21571900    0.03526400
Se    9.50970000    6.08461000    6.12966000      0.253417    1.05231300   -0.09390100
Se    4.43184000    4.63968000   13.29846000      0.179616   -0.28182400    0.70177200
Se    5.07266000   13.22318000    5.82837000     -0.419487   -0.01198100   -0.46096200
Se   10.08820000   13.89437000   14.96706000      0.279866   -0.11738300    0.59704300
Se    7.08978000   17.70666000    4.00056000     -0.544385    0.24608800   -0.37942500
Se    8.49177000   17.29587000   15.09271000     -0.258201   -1.11470100    0.47087600
Se   13.50861000    0.08410000    3.56111000      0.092390    0.54914400   -0.48954100
Se   13.25825000    0.45759000   16.49863000      0.409262    1.14915900   -1.37327100
Se   14.27227000    9.61795000    4.26655000     -0.394663    0.00883200    0.52441700
Se   11.57677000    5.24091000   13.75208000      0.264748    0.52613600   -0.01764600
Se   14.04619000   11.87229000    5.50098000      0.376797   -0.02142000   -0.31656400
Se   13.75194000   14.90469000   15.68339000     -0.006460    0.10731800   -0.50179800
Se   12.13083000   19.34686000    7.39801000     -0.263160   -0.57339200   -0.25573600
Se   12.07128000   19.17759000    0.50360000     -0.290418   -0.91350200    0.09266000
Se   19.03381000    1.64596000    6.83553000      0.857517   -0.51391700   -0.00740100
Se   20.28452000    1.27452000   16.02342000     -0.834226    0.30857000   -0.58402500
Se   20.00275000    5.67738000    7.67173000      0.498510   -1.28842000   -0.85648500
Se   19.44325000    6.73950000   16.29044000      0.655538    0.23278800   -0.85002400
Se   19.08386000   12.83859000    3.53761000      0.093960    0.15502700    0.03538500
Se   17.27670000   14.55996000   13.36798000     -0.297322    0.08705500   -0.15229700
Se   16.72655000   17.99260000    4.18949000     -0.282741   -0.83043800   -0.15954000
Se   16.78927000   20.92933000   15.34203000      0.583691    0.18582700   -0.00356900
Se    2.14320000    8.35753000    5.11724000      0.509957   -0.10354500   -0.03548100
Se    3.49330000    7.37920000   13.62623000      0.307550    0.20403200   -0.13853200
Se    1.28614000   12.46302000    4.12594000      0.616663    0.66799800   -0.77320900
Se    4.65606000    9.29519000   14.48787000      0.323162    0.40934400   -0.17222200
Se    5.46125000   14.29569000    8.10831000      0.088795    0.44751400    0.73474300
Se    3.76831000   16.51185000   17.56926000     -0.468526    0.67363500   -0.15257600
Se    3.25335000   20.46977000    7.86323000     -0.512667   -0.05802700    0.14109700
Se    6.26364000    0.59428000   14.64425000      0.110022   -0.25760200   -0.54498500
Se    8.70800000    0.97958000    5.67247000      0.171057   -0.60267700   -0.81435700
Se    7.54588000    1.93204000   17.52363000     -0.252838    0.58997900    0.50068200
Se   12.43284000   11.50856000    9.02385000      0.146352   -0.04847000    0.30129000
Se    9.32779000    9.23906000   17.40539000      0.428165    0.19311500    0.24647600
Se    8.37423000   14.86632000    8.10991000      0.834956   -0.95192800   -0.17272600
Se   11.57993000   16.85308000   13.91288000      0.428988    0.67066600   -0.97415800
Se   10.91942000   20.61318000    4.35648000     -0.193888   -0.04958900   -0.68702900
Se   10.20948000   18.25925000   17.08444000      0.822822   -0.81616800    1.14001200
Se   10.23796000    3.50762000    5.13845000      0.414889   -0.21004500    1.67111700
Se   17.49159000    4.08735000   16.64319000      1.218119    1.25526700   -0.81449100
Se   17.85293000    7.34789000    5.78279000     -0.657707    0.24096300   -0.06441100
Se   17.34044000    9.14485000   13.21669000     -0.210863   -0.21432500   -0.61439500
Se   17.52588000   10.45357000    5.00118000      0.277880   -0.15675000    0.78397300
Se   14.13126000   18.32215000   15.96490000      0.265383   -0.15687500    0.65366600
Se   15.21049000    3.20352000    4.45028000      0.496262    0.03467000    0.01922000
Se   18.85702000    2.81592000   12.54141000      0.377440   -0.62224400    0.09158000
Se    0.10866000    3.12704000    5.75046000     -0.887389    0.24423600    0.29617100
Se    1.85985000    4.20470000   15.54092000      0.327100   -0.06142000   -0.47444900
Se   17.62585000   13.29830000    7.31448000      0.319058    0.20241700    0.81707400
Se   22.53752000   13.11298000   13.46902000      0.072344   -0.00405200    0.25867100
Se   19.68063000   15.50433000    5.01815000     -0.530999    0.24029100   -0.79855800
Se   20.10428000   19.72258000   14.15848000      0.531083    0.01653400   -0.17964000
Se   21.02438000   17.61237000    9.67770000      0.523433    0.18364500   -0.16300400
Se   20.54112000   19.73689000   17.26969000     -0.087920    0.57943000    0.70289300
Se    3.52611000    1.05171000    5.76417000     -0.280694    1.01057200    0.18583400
Se    7.20976000    3.25180000   14.75158000      0.368204   -0.47994000   -0.33967200
Se    1.49901000    7.25039000    2.49600000      0.373471    0.68471900   -1.06504800
Se    5.32251000    7.46682000   11.41006000      0.553748   -0.97306300   -0.23106400
Se    1.29243000   15.21974000    2.05852000      0.105652   -0.34773400    0.10977000
Se    6.09554000   15.16226000   14.52084000     -0.161941   -0.35810100    0.64024700
Se    4.77806000   17.81822000    3.30134000     -0.228081   -0.56343900   -0.30222300
Se    5.30098000   18.14814000   11.92341000     -0.343217   -0.85318600   -0.74696700
Se    9.69808000    1.19725000    2.37060000     -0.143572    0.32071600    0.09692300
Se   10.34812000    0.93501000   16.54931000      0.322806    0.76916800   -0.72781300
Se   10.17373000    8.61938000    2.77216000      0.057469   -0.12609900    0.28696200
Se    7.45394000    6.46921000   14.81494000     -0.459119    0.77345100    0.42152000
Se   11.15492000   11.52724000    4.03261000     -1.060867    0.77083200    1.69010400
Se   10.34055000   11.35419000   12.58774000      0.314869    0.46295800   -0.93436800
Se    8.46742000   20.06583000    1.34232000     -0.118116   -0.50769200    0.37377500
Se   16.70688000   18.18722000   12.63999000     -0.470334    0.05091100   -0.26794400
Se   13.63642000    3.79057000    6.16638000     -0.050867   -0.19035000   -0.05520100
Se   15.77868000    1.04643000   16.14894000     -0.003961    0.25741300    0.15456300
Se   16.75678000    5.17917000    4.32758000     -0.472633    0.06840400    0.34774800
Se   12.92648000   10.42479000   11.32967000     -0.013332    0.01061200   -0.53567200
Se   16.11632000   11.55139000    2.51512000      0.650150   -0.78158700   -1.21527300
Se   17.63650000   12.79276000   16.37685000     -0.418295    0.25348000   -0.01498400
Se   16.08677000   16.51472000    2.40831000      0.944095   -0.15187200    0.33392100
Se   14.51768000   21.82414000   12.26425000      0.283078   -0.66768900    0.24175800
Se    0.01439000   19.55587000    7.45371000      1.501230    0.02236700   -2.01881900
Se   20.77997000    1.10232000   13.46625000      0.204469   -0.01745900    0.34603000
Se   21.35919000    6.18638000    4.05513000      0.022892    0.62730100    1.23495700
Se   20.08905000    8.53704000   14.25947000      0.723863   -0.50811200    0.37539700
Se    0.61685000   14.64091000    5.83677000      0.033057   -1.74049700   -1.19189800
Se    1.73054000   14.30899000   14.64324000     -0.744744    0.06243800    0.03319400
Se   20.55647000   18.15674000    3.80924000      0.340710   -1.12272100   -0.27724000
Se   21.30172000   21.01095000   10.50503000     -0.281250    0.40586100    0.36219700
Se    2.55305000    3.80424000    2.97242000      0.261465    1.29256000   -0.64909500
Se    1.94460000    3.49627000   10.70088000     -0.481973    0.66520500    0.14439900
Se   22.00327000   10.30543000    1.39655000     -0.396983    1.37461700    0.31940500
Se    0.95209000    9.15895000   11.91108000      0.925642   -0.27083700   -0.44156900
Se    0.88331000   16.76792000   17.88948000     -0.720977    0.43197200   -0.28519200
Se    4.15170000   15.98890000   13.42332000      0.318794    0.60719000    0.48333600
Se    1.58897000   20.98016000    3.47080000     -0.232943    0.37360000   -0.65271600
Se    4.93190000   20.31794000   14.26051000     -0.229864    0.69607400    0.54348000
Se    6.42893000    2.92320000    3.59269000     -0.439983    0.00410200    0.33109600
Se    9.79578000    3.81667000   15.35890000     -0.003162   -0.39943500   -1.72734300
Se    4.89003000    5.89507000    5.23314000     -0.429856   -0.07723000   -0.22384200
Se    7.88005000   11.11870000   15.47302000      0.434690   -0.99375100    0.20379100
Se    7.19854000   14.33131000    0.86637000     -0.644820    0.12059100    0.39305100
Se   11.21697000   14.46100000   11.05490000     -0.243872    0.17952000    0.54763400
Se    6.24842000   20.69816000    6.36500000      0.548673   -0.28691600    0.50030900
Se   10.30567000   20.27937000   13.85449000     -0.526105    1.30612900    0.46429900
Se   12.56347000    3.51442000    2.71163000      0.484208   -0.46094300   -0.84963100
Se   13.93678000    7.03232000   10.85887000     -0.072974   -0.17358900    0.56409900
Se   13.63026000    7.15661000    2.47436000     -1.043321    0.01547900    0.25499400
Se   11.56624000    9.68458000   14.58497000     -0.204401   -0.06073200   -0.38444400
Se    8.71777000   14.83585000    4.34235000     -0.079273   -0.85732000    0.25879500
Se   14.90450000   13.73038000   10.60412000      0.783992   -0.43431900    0.18311900
Se   14.84404000   20.61119000    3.59400000     -0.983360   -0.60401300    0.73376000
Se   13.85914000   19.55280000   13.54619000      0.351785    0.98007500   -0.30154000
Se   18.63735000    5.98347000    1.67079000     -0.160938   -0.54986800   -0.39665200
Se   15.36682000    6.18371000   14.87326000      0.284057   -0.66273300   -0.35468000
Se   19.42018000    8.54892000    4.07315000      0.389247    0.59940500   -0.01686000
Se   19.18274000   13.75309000    9.61858000     -0.100233   -0.38500000    0.65574700
Se   21.67087000   14.29001000    1.40649000      0.309520    0.53632900    0.75450800
Se   17.64441000   16.88737000    9.86390000     -0.144389    1.16302500   -0.40752100
Se   17.16021000    0.39704000    3.81398000      1.094717   -0.33156300   -0.17323000
Se   16.05553000    1.30785000   11.04546000      1.062122    0.55812800   -0.08730400
