384
22.54784000 22.54784000 18.93360000
Ge    5.29373000    3.92226000   10.82034000     -0.603619    0.26839700   -0.01867300
Ge    4.70263000    6.75402000    1.63156000     -0.560003   -0.24271400    0.07031400
Ge    4.18479000   11.42385000    7.89472000     -0.376290   -1.17702100   -1.27272900
Ge    6.70142000   10.18629000   17.73858000      0.445629   -0.38067400    0.99899900
Ge    4.89759000   14.74780000    8.96664000     -0.296630    0.17810000    0.98877400
Ge    8.13602000   17.29198000    1.13471000     -0.078065   -0.17997100    0.03003300
Ge    8.25646000   19.29320000    8.88284000      0.078503    0.57537500   -0.96466800
Ge    5.17136000    0.38399000   18.58528000      0.030495   -0.38954700    0.14201700
Ge    7.85415000    5.42342000    9.43763000      0.363301   -0.26761500   -0.06944100
Ge   11.38777000    5.47341000   18.09571000      1.262048    0.22793700    0.01537600
Ge   11.81178000    7.51178000    9.12069000     -0.061001   -0.53071500   -0.34985400
Ge   10.39269000   12.43800000    0.37959000      0.484521   -0.97037600   -1.18028600
Ge   10.28413000   16.68265000    8.81726000     -1.908121    0.54562100    0.56475800
Ge   12.23311000   15.58297000    0.83925000     -0.283468    0.61565100    0.47106900
Ge   10.14443000    0.04216000   10.39548000     -0.835267   -0.27989500    0.40659500
Ge   15.62096000   21.46132000    0.22188000     -1.198167    1.32506700    0.58209500
Ge   17.91233000    5.50005000   10.14003000     -0.144496   -0.60881700   -1.37168600
Ge   18.44735000    6.88948000   17.98160000     -0.156639    0.55764700   -0.61244500
Ge   18.79127000   14.82451000   10.57856000     -0.120535    0.28184700    0.65144200
Ge   18.39378000   11.43048000   17.79929000     -0.095808    0.52159900    1.37573900
Ge   13.80085000   16.92359000    8.77264000      0.119814    0.18841500    0.12033000
Ge   16.73980000   14.89707000    0.12668000      0.467875   -1.37844000    0.19802000
Ge   16.11716000    3.60844000    8.98856000      0.594046   -0.40798700   -0.61898200
Ge   19.14978000    3.91508000   18.86324000     -0.797481   -0.34019300    0.02710100
Ge    0.73060000    5.13733000   10.30853000      0.934425    0.04728300   -0.33121300
Ge   21.84886000    4.65754000    3.10335000      0.085275    0.40656700    0.05545900
Ge    0.50626000   10.54553000    9.25017000      0.097281   -0.03719500    0.35981400
Ge   21.38131000    8.98145000   18.44985000      0.648109    0.54312400    0.54145800
Ge   20.95759000   15.30576000    9.16124000      1.125247    0.23885900   -0.33937300
Ge    4.15705000   15.19045000   17.87144000     -0.273134    0.89138700   -0.54477800
Ge   18.78799000   22.43242000   10.22095000     -0.114366   -0.28540400   -0.08379200
Ge   20.73995000   20.76880000    1.12392000      0.460124    0.29918900    1.71126900
Ge    2.40697000    6.38508000    8.23082000     -0.511266   -0.09961200   -0.41875900
Ge    1.89884000    7.35339000   16.99119000     -0.377600   -0.46071500    0.01598600
Ge   20.32098000    8.79479000    5.24262000      0.518973   -0.30351300    0.05840800
Ge    3.70651000   12.89614000   15.48642000     -0.200940    0.10799400   -0.28996600
Ge    5.34644000   19.24523000    4.63266000     -0.196172   -1.16685800    1.14241000
Ge    0.14715000   18.49541000   17.94988000      1.545327   -0.72266800   -0.10096000
Ge    4.35180000   19.45309000   10.27543000     -0.406209    0.03250900   -0.80748400
Ge    2.30957000    1.93171000   17.22113000     -0.436103   -0.31421400    0.32287400
Ge    9.79880000    3.56363000    6.83887000     -0.246584   -0.02982200    0.15637300
Ge    7.09166000    6.74342000   16.05236000     -1.032554   -2.14232900    0.31127800
Ge    7.96333000   11.20949000    3.97247000      0.305182   -0.23328800    0.21098900
Ge   10.04887000    8.01720000   16.83621000     -0.152611    0.72171900    1.30543300
Ge    6.47902000   17.43101000    8.32298000     -0.855169   -0.26494500    0.07396900
Ge    9.85740000   15.59437000   16.23225000     -0.086809   -0.30581800   -0.09014700
Ge   10.47267000   21.60606000    6.47515000     -0.053849   -0.81095600    0.19873600
Ge   10.17202000   21.27697000   14.35217000     -0.655946   -0.79623300   -0.52162900
Ge   12.22702000    6.94353000    5.04856000      0.088160    0.52609700   -0.60032700
Ge   15.34437000    5.01494000   15.65501000      0.216810    0.00750800   -0.01594700
Ge   13.63190000   10.85773000    6.71136000      0.204756   -1.03040400    1.00791400
Ge   15.14864000   11.76141000   15.96430000     -0.981150    0.44683600    0.05537100
Ge   12.80443000   15.24291000    5.54654000     -0.094822   -0.75125300    0.20388400
Ge   14.58333000   18.07954000   18.91620000      1.355689   -0.28912400   -0.53617200
Ge   13.53570000    0.40639000    9.80130000      0.606780   -0.51620800   -0.09614700
Ge   16.87529000   22.46323000   14.41157000     -0.197235   -0.54227700   -1.65871800
Ge   20.11806000    4.75815000    8.88896000      0.011589    0.18965600   -0.07841500
Ge   21.30304000    6.42416000   13.49325000     -0.785157   -0.02324200   -0.23269500
Ge   17.95187000    9.98332000    8.01847000     -0.142294    0.37117800   -1.22016000
Ge   20.55144000   15.52350000   16.94632000      1.022674   -1.53593800    0.91422300
Ge   19.65445000   15.03783000    5.37511000      0.581781    0.65789800   -0.54449000
Ge   17.13034000   18.22683000   16.42012000     -0.502371   -1.24154400    0.01690900
Ge    0.76625000    0.39398000    7.67481000     -0.575476   -0.20514800   -1.04585200
Ge   18.50179000   20.63922000   17.05208000      0.805417   -0.12736600    0.43675000
Ge    6.59640000    2.64898000    6.79599000     -0.242406   -0.56042700    0.26110200
Ge    3.19577000    3.53705000   13.83491000      0.268246    0.55053000    0.15337100
Ge    1.27531000    8.95885000    5.99386000     -0.476960   -0.70292000    0.08664900
Ge    3.62757000    8.31450000   11.26324000     -0.611606   -0.63166400   -0.53186100
Ge    0.87932000   15.72268000    4.03519000     -1.044323    0.29385400    2.17056000
Ge    2.89738000   17.31769000   15.35488000     -0.935944    0.11635800   -2.21077600
Ge    2.45092000    0.73229000    9.51244000      0.761845    0.07486200   -0.31655000
Ge    6.81629000   18.19756000   16.57618000     -0.507995    1.97811300   -0.28668700
Ge    7.69703000    3.91974000    3.30908000     -0.072383    0.43222600   -0.12727900
Ge   10.38794000    2.87054000   15.95521000     -0.587113   -0.23732200   -0.07532700
Ge    8.52635000    8.73148000    4.66978000     -0.339289   -0.03907800   -0.26415200
Ge    8.23585000    9.87404000   13.27945000     -0.523927    0.16226300   -0.21789600
Ge    7.07072000   14.54589000    4.11354000     -1.302417    0.58335200   -0.55749600
Ge   12.19588000   12.47494000   15.70871000     -1.273930    0.49833500   -0.53104800
Ge    7.70218000   20.06155000    3.49820000      0.833515   -0.02482900    0.50030700
Ge    9.34901000   16.33781000   13.33176000     -0.366714    1.52926200   -0.86206000
Ge   11.70384000    1.53451000    5.14037000      0.605348   -0.24704400   -0.12201500
Ge   12.07194000    4.35630000   14.33398000      0.368661    0.07765300   -0.50073200
Ge   17.24109000    6.43546000    4.70334000     -0.660523   -0.28195100    0.62331300
Ge   13.13145000    8.53654000   14.12229000      0.096748   -0.10465100    0.70424100
Ge   14.95799000   12.96217000    3.89336000      0.660022    0.43446300    0.42566000
Ge   13.17006000   16.01850000   12.65654000     -0.000034    0.77976300    0.41398300
Ge   11.84041000   17.43460000    4.41863000      0.630423   -0.42946600   -0.45229600
Ge   10.96070000   19.43993000   17.10697000      0.011272   -0.27085300   -0.53532100
Ge   22.21974000    3.85628000    5.94814000     -0.002951    0.38535400   -0.33584700
Ge   22.04973000    2.46951000   13.73123000      0.091998    0.46497100   -0.13507100
Ge   18.88225000    7.21058000    7.42409000     -0.182480    0.98289400   -0.11662600
Ge   18.36902000   10.84949000   13.12892000      0.217461    0.77748300    0.23420100
Ge   21.30522000   16.89430000    1.86202000     -0.276560   -0.01411700   -0.38283100
Ge   18.39527000   15.49003000   14.39120000      0.018400    0.92203100   -0.83765500
Ge   19.27508000   19.98079000    5.23112000      0.852918   -0.67015400    0.00534000
Ge   22.49159000   20.60210000   13.43796000     -1.500049   -0.03276700    0.28436400
Ge    4.13496000    3.41212000    2.87319000     -0.069792   -0.24864200    0.23503300
Ge    6.10027000    1.92362000   12.78190000      0.057119    0.00732600    0.28389500
Ge    4.72941000    8.11826000    4.65336000      0.533599    0.76065600   -0.01545800
Ge    6.98256000    5.27650000   13.83338000     -0.125815    0.23931000   -0.09917200
Ge    4.40163000   12.99695000    0.52690000     -0.053770   -0.14813800    1.18738000
Ge    3.90625000   11.63568000   12.21639000      0.034501   -0.52982400   -0.13186000
Ge    4.63429000   21.85593000    5.47698000      1.360819    0.60648700   -0.06515000
Ge    7.09272000   19.75236000   12.39424000      0.310440    0.36818200   -0.16033600
Ge   11.51077000    3.85473000    3.39381000     -0.596301   -0.59676100    0.06955300
Ge    8.32676000    3.71999000   11.54589000      0.598852    0.64525200    0.68203600
Ge   12.06496000    7.64814000    1.63330000     -0.432282    0.17939500    0.60445800
Ge   10.87778000    6.92701000   12.68921000     -2.978780   -0.17185100    0.37058400
Ge    8.25216000   13.35103000    1.56856000     -0.571977    0.15995600   -0.47340800
Ge    8.57876000   14.38801000   11.09336000     -0.282642    0.27095100    0.32562300
Ge   11.47312000   21.55183000    0.43598000      0.395388    0.31404300    0.53684000
Ge   11.03029000   19.69331000   12.26979000      0.239177   -0.00358000    0.87846600
Ge   21.96725000    0.18661000   16.81678000      0.021795   -0.32721800   -0.21346200
Ge   12.63947000    2.64444000   11.10126000      0.395027    0.58892700   -0.25657500
Ge   16.47738000    9.05362000    1.04909000     -0.871430   -0.68132000    0.91329000
Ge   14.82779000    9.01076000   10.32870000     -0.148659    0.06769600   -0.48087200
Ge   18.30151000   11.83656000    2.90034000      0.122465    1.06160300   -1.53044600
Ge   16.89049000   15.59483000    8.70745000      0.875874   -0.13651900    0.51237400
Ge   16.95976000   20.69091000    3.00493000      0.250478   -2.22760600   -0.68389900
Ge   15.02391000   19.46527000   10.68224000     -0.786607    1.02896500    0.77627900
Ge   21.31762000    1.33036000    1.93054000     -0.308486    0.03425400    0.60975600
Ge   21.33466000    0.82874000   10.47739000     -0.177314    0.23972600    0.14408400
Ge    0.94819000    8.40250000    1.76443000     -0.355757   -0.52592400   -0.25731700
Ge   21.40056000   10.05275000   12.50340000     -0.243418    0.20202100    0.19041800
Ge   20.59573000   12.86332000    1.15538000     -0.565837    0.00710300    0.63090900
Ge    0.83709000   14.13004000   11.06151000      0.012878    0.95423000   -1.46769200
Ge    0.09808000   19.43757000    4.47823000     -0.173910   -0.11964500   -0.01335000
Ge   18.30316000   18.76928000   11.11655000      0.047089   -0.15610400    0.88604200
Se   20.22074000    0.46112000   18.68454000      0.890184    0.00865000    0.08631700
Se    1.25969000    2.45223000   11.08062000     -0.131397    0.07975700   -0.30412400
Se    2.66316000    9.86297000    2.93655000     -0.374655    0.02742300    0.17572200
Se   22.33954000    7.56651000   11.29132000     -0.206360    0.20421500    0.05327000
Se    0.28305000   11.96678000    0.47955000      1.247122    0.64125200    1.17212700
Se    1.79821000   12.75306000    9.05884000     -0.057466   -0.35643800    0.23885700
Se    2.05217000   17.91777000    5.04771000      0.107384   -0.15674200   -0.28968300
Se    1.96537000   16.53494000   11.31133000     -1.048436    0.06716500   -0.55428500
Se    6.02975000    2.14969000    1.89808000      0.700587   -0.64243500   -0.23329900
Se    7.13882000    1.89599000   10.50123000     -0.458490   -0.75496000   -0.31888100
Se    7.12146000    6.21541000    1.93344000      0.276615   -0.88032400   -0.08644700
Se    8.31710000    7.36716000   12.20330000      0.848737   -0.23076100    0.51054300
Se    7.41750000   10.58933000    1.16901000      0.657751    0.09748700    0.16617400
Se    6.45367000   13.41848000   12.90581000      0.133473   -0.51635100    0.21206400
Se    4.79923000   20.46970000    2.55082000      0.179552    0.40233900   -0.89860900
Se    9.18671000   18.65515000   10.98449000     -0.648013   -0.87036600    0.74482900
Se   13.90536000    0.85017000   18.80684000      0.559600   -0.75755900    0.13487800
Se   11.54751000    1.49315000   13.81345000      0.016386    0.30253500    0.58910400
Se   12.39337000    8.12270000   18.14661000      0.191537   -0.77835400    0.47530500
Se    9.69701000    8.74864000    9.66979000     -0.883421    0.02912800   -0.08081800
Se   13.14668000   13.70315000    2.27698000     -0.504694   -0.32282300   -0.35448100
Se   11.76810000   10.63774000    8.52390000      0.398101    0.23199000    0.17796100
Se   14.14209000   16.81956000    2.08699000     -0.048718   -0.61332400    0.53757700
Se   12.58547000   18.33400000   10.78081000      0.899834   -1.24738200   -0.05035000
Se   19.28868000    3.02915000    2.24540000      0.585433   -0.41169800    0.59039300
Se   16.01284000    2.30692000   12.23372000      0.178903    0.05818000   -0.23300500
Se   16.08150000    7.89495000   17.23719000      0.162650    0.17059900    3.38338700
Se   18.15106000    5.87540000   12.39994000     -0.273661    0.53978300    0.56971400
Se   18.73708000    9.40860000    0.37389000      0.826294    0.33008700   -0.22808400
Se   17.46035000   13.74261000    6.23339000      0.028332   -0.40639800    0.66968100
Se   20.44382000   19.01155000   18.51067000     -1.395060   -1.01625800    0.05152500
Se   16.48651000   18.13048000    9.34876000      0.497078   -0.11545600   -1.22967100
Se    2.08875000    3.16150000    1.32444000     -0.427317    0.10786700   -0.12463000
Se    5.83724000    6.59131000   11.01325000     -0.077980    0.19611300   -0.03961500
Se    5.16318000   10.81847000    1.94992000      0.023371    0.05673800   -0.19603600
Se    5.24161000   12.30276000    9.90492000      0.040768    0.24686900    0.83663300
Se    2.43468000   15.34352000    2.45202000      0.837840   -0.66777500   -1.41087700
Se    2.23666000   13.45628000   12.88920000      0.209996   -0.79096200    1.41928400
Se    2.60781000   21.85410000    0.47960000      1.787122   -0.61180100   -0.94216800
Se    6.46932000   20.77893000    9.73704000     -1.174796   -0.10350500    0.74354000
Se   12.48303000    5.01584000    1.46055000      0.423088    1.02801300   -0.02126700
Se    5.66133000    4.55253000    8.22279000      0.265816   -0.00024900    0.13022500
Se   12.07835000   10.54713000    1.14521000     -1.031826    0.66360900    0.55928200
Se    7.47452000   11.65608000   11.18742000      0.602260    0.30039200   -0.26552300
Se    9.70826000   15.44595000    1.80625000      0.641892    0.74555900    0.20294200
Se   12.92574000   13.06448000   11.80110000     -1.603715   -0.70373200   -0.15050200
Se    9.25573000   21.29948000   17.96413000     -0.190283   -0.21185000    0.20570800
Se    8.71952000   22.05386000   12.35239000      0.011116    0.20989300   -0.00701500
Se   15.50472000    4.64243000    0.50774000      0.421631   -0.12401900   -0.35409200
Se   16.51029000    7.05104000    8.74132000      0.405581    0.05895000    0.64039200
Se   15.58794000   10.44057000   18.11774000     -0.517261    0.65142400    0.10863800
Se   14.32272000   10.20833000   12.77821000      0.591825    1.31578100   -0.50993100
Se   17.41291000   14.26775000    2.85344000      0.295044   -0.76224900    0.11657900
Se   14.93512000   12.80446000   10.75041000      0.811751    0.18548400   -0.66510500
Se   17.77306000   21.66691000    1.16176000      1.689590    1.74669700   -1.22502600
Se   14.70452000   20.95965000    8.66696000      0.125676   -0.10732500   -0.00055500
Se   21.15547000    5.21850000    0.34509000      1.295977    0.24638200    0.06172500
Se   21.49051000    4.12389000   11.68112000     -0.733735   -0.41964000    0.63464500
Se   20.07303000    6.94619000    1.94804000      0.249465   -0.95776800    0.30446900
Se   20.36068000   11.16173000   10.06675000      0.163991   -0.45472800    0.88484900
Se   19.59644000   15.20877000    0.29576000     -0.999080   -0.53793000    0.40874800
Se   20.48798000   15.74538000   12.63229000     -0.040779    1.14601800   -0.29358400
Se   20.75952000   21.98151000    3.83928000     -0.015861    0.63332800   -0.48385500
Se   17.16977000   21.08641000   11.63651000      0.590205   -0.98689600   -0.20050400
Se    2.84578000    3.76079000    8.58892000     -0.595307   -0.10333800   -1.16378800
Se    0.42083000    3.66570000   17.02637000      0.301093   -0.15269900   -0.58557200
Se    3.59569000    8.89756000    8.74561000     -0.173378    0.72355100   -0.12659800
Se    0.94391000    9.62746000   17.16015000      0.657024   -0.52906000   -0.07670000
Se    3.90880000   17.98034000    8.24345000      1.176854    0.24041800    0.78223800
Se    0.10765000   17.78084000   15.24232000      0.602043   -0.86764600    0.20182400
Se    2.18580000   20.50533000   12.65790000      0.925029   -0.24500900   -0.93223100
Se    1.32186000   20.90735000   17.69488000     -0.753610   -0.34601900   -0.97282600
Se    5.60717000    4.01753000    4.90507000      0.198943    0.26342900    0.36325900
Se    5.58703000    4.73972000    0.26768000     -0.127035    0.32915700    0.66784000
Se    6.15164000   10.09538000    6.28829000     -0.790893   -0.17259200   -0.00861000
Se    4.42334000    7.68650000   16.49900000      0.365660   -0.16954700    0.39954500
Se    6.28313000   16.00725000   10.63884000      0.441857    0.18553400   -0.38086700
Se    6.88257000   15.92412000   17.86930000     -1.162563   -0.73006700    0.98856000
Se   10.52249000   17.97910000    6.44985000     -1.161118   -0.21158200    0.25901300
Se    6.29548000   20.61671000    0.29499000     -0.007641    0.47675900   -0.08322300
Se   10.39974000    2.31677000    9.84899000      0.405905    0.47146800   -0.09475800
Se   12.97659000    3.92177000   16.73821000     -0.323085   -0.28138700    1.01460400
Se   13.69601000    8.12337000    6.73943000      0.395370   -0.24678300    0.90592600
Se   12.83652000   10.18894000   16.15474000      0.624303   -0.78320600    0.01479700
Se   11.98607000   15.24528000    8.23206000      1.901327   -0.98063100   -1.35768000
Se   14.65866000   14.69128000   17.32080000     -0.497077    0.64195500    0.00613500
Se   12.54730000    0.20498000    7.24972000     -0.051773   -0.09957600   -0.13139600
Se   15.38669000   20.16995000   17.29169000     -0.347785   -0.88601100   -0.99157400
Se   13.94019000    4.31319000    9.47946000     -1.370919    0.12598800    0.62130900
Se   20.19072000    1.68598000   15.20412000      0.343018    0.62455000    0.37051400
Se   18.85734000    9.01898000   10.10557000     -0.081489    0.68835100    1.38341900
Se   17.35981000   10.95561000   15.66759000      1.116622   -1.40881900   -2.46786700
Se   15.52433000   16.31357000    6.80926000     -0.545592    0.36647400    0.00474100
Se   19.44243000   13.60113000   15.78421000      0.972004   -0.26825900    0.45279500
Se   18.51763000   20.24776000    7.85260000      0.493198    0.13256000    0.57898900
Se   18.60039000   18.54067000    2.63179000     -0.277028   -0.14973800    1.09987600
Se    4.70301000    0.69005000    7.44353000      0.487575    0.69427600    0.13077600
Se    4.28296000    3.40741000   17.34281000      0.163744    0.06829900   -0.41444600
Se    7.76968000    7.69244000    8.62230000      0.476409    0.92411400   -0.34945000
Se    4.81936000    8.60369000   18.79381000     -0.155015    0.50356000   -0.13504700
Se    6.31001000   16.31021000    5.87294000      0.058581   -0.24560000   -0.07578200
Se    5.27879000   12.02249000   17.29982000     -0.708324    0.66511200   -0.33968000
Se    1.79955000   20.96209000   10.02068000      0.724570   -1.03261500    0.40729500
Se    0.43700000   19.58646000    1.87565000     -0.250830   -0.34081600   -0.18962200
Se    8.93356000   21.80872000    8.47171000     -0.423129    0.13278900   -0.02965800
Se    9.98017000    3.07931000    1.27178000     -0.109479    0.00140400    0.29712900
Se   10.56033000    5.23802000    8.61903000     -0.386743    0.69928300    0.40296400
Se    9.01093000    5.60980000   17.72550000     -0.257695    0.44979000   -0.00270500
Se    9.25464000   12.12441000    5.99563000     -0.354295   -1.09116700    0.56475400
Se    8.04156000   13.76691000   17.72755000      0.584247    0.02142200   -0.22619200
Se   11.91466000   21.05882000   10.34732000     -0.103414    0.43763500   -0.28884200
Se   11.62450000   14.15998000   17.78873000      0.070351   -0.18560900   -0.26924200
Se   15.43812000    1.77273000    7.31856000      0.591626    0.30809400   -0.42359500
Se   16.54867000    2.86640000   18.34176000      0.029804    0.34679500   -0.20362100
Se   15.73518000    5.27530000    6.88062000     -0.296803   -0.73153300   -0.22282100
Se   15.62472000    7.76384000   15.14451000     -0.531086   -0.52140600   -3.14593200
Se   15.61071000   10.77941000    8.61463000     -0.186446    0.24877800    0.68432700
Se   14.55249000   13.10681000    0.22206000      0.002115   -0.65389900   -0.02478500
Se   14.10497000   18.82504000    5.74149000     -0.716362   -0.04124900   -0.62898400
Se   17.11223000   17.19496000   18.72160000     -0.267957    1.75744800    0.22732400
Se   20.64266000    0.63363000    7.99187000      0.401378    0.25636500   -0.18045100
Se    0.89156000    0.43648000   13.01250000     -0.500101   -0.06632000    0.51885100
Se   20.72606000    7.41050000    9.34210000      0.225281   -0.64818500   -1.95232000
Se   20.42990000    7.70807000   16.64831000     -0.089988   -0.49398900   -0.41093900
Se   21.97127000   10.47284000    7.06787000      0.283154   -0.16014700   -0.03778100
Se   21.17510000   11.56564000   17.78521000     -1.478696   -0.71651700   -1.62328200
Se   19.42137000   16.74786000    7.77829000     -0.209619   -0.07237700    0.05107500
Se   19.74117000   17.38729000   15.94517000     -1.531713    0.91253300   -1.08552700
Se    3.78396000    1.62300000   11.38368000      0.173077    0.04740800    0.28835200
Se    2.85793000    0.73544000   14.86453000     -0.005478    0.32837400    0.49184900
Se   22.25066000    6.56487000    7.19262000      0.894773   -0.39205500    0.50645800
Se    1.24955000    9.55373000   14.22579000     -0.587437    1.89214600    0.53491000
Se    3.14011000   14.71002000    7.01621000     -0.205974    0.44883300   -0.22640700
Se    1.83080000   13.70326000   16.78745000     -0.169255    0.34461000    0.28712500
Se    0.49810000   17.25872000    9.38979000     -0.570257   -0.41032900   -0.11972800
Se    2.07410000   19.95318000   15.20776000      0.478552    0.10226000   -0.13322600
Se    6.48719000    0.14539000    3.39989000      0.342128    0.95862600   -0.30883700
Se    8.47549000   22.07951000    1.35686000     -0.621063    0.71178000    0.48960100
Se   10.16326000    8.90924000    6.50869000     -0.818178   -0.38075900    0.48932600
Se    4.64959000    6.06019000   14.49509000     -0.336714   -0.84517700   -0.66900400
Se    5.69702000   12.52110000    4.61855000      0.173619   -0.23927500   -0.12479500
Se   10.09233000   14.13741000   13.73291000      0.234442   -1.49414300    0.85332500
Se    7.60746000   17.53900000    3.76291000     -0.340913   -0.00459000    0.09863400
Se    7.26655000   16.49303000   14.93416000      0.746242   -0.60358200   -1.04868600
Se   13.30336000    0.10007000    3.82261000      0.408583    0.78030500   -0.21582800
Se   13.73456000   22.26828000   16.35968000      0.038489   -0.06058600    0.67391600
Se   11.56729000    9.66095000    4.77515000      0.300165    0.21585900   -0.57572300
Se   11.15998000    6.74852000   15.15125000      0.675813   -0.83912400   -0.74286000
Se   12.75510000   12.55591000    5.32348000     -0.309484    1.84259300   -0.51373000
Se   13.74660000   13.58241000   13.93817000      0.907216    0.62451600    1.37273400
Se   12.44581000   18.96195000    7.41938000      0.796461    0.66006500    0.59364700
Se   12.13223000   18.59293000    0.38308000     -0.483094    0.04151800   -0.70808000
Se   20.98131000    1.83296000    5.49444000     -0.306887   -0.16653100   -0.28386200
Se   17.75749000    0.30917000   16.48885000     -0.005632    1.39207000    1.67587800
Se   19.20353000    5.13787000    6.34863000      0.292677   -0.74279000    0.18198100
Se   18.43900000    5.45741000   15.73152000      0.003771   -0.29994600   -0.02250200
Se   19.51600000   11.35642000    4.93286000      0.303379    0.15953800    0.74863300
Se   17.49842000   13.23469000   11.80513000      0.236777   -0.59217600    0.60186000
Se   17.98117000   17.12872000    4.65115000      0.555119    0.88795500   -0.51492100
Se   17.90706000   19.77135000   14.80730000     -0.418367    0.67869400   -1.65509900
Se    2.98550000    6.62508000    5.63637000     -0.172676   -0.18232300    0.33831900
Se    1.11729000    7.48187000   13.35630000      1.340054   -1.47199300    0.44816300
Se    2.54487000   10.93190000    5.45931000      0.441378    0.27162100   -0.40750700
Se    4.51008000   10.54653000   14.44443000     -0.290541    0.36450100    0.00166200
Se    6.14605000   13.72564000    7.10758000      0.482238    0.27912600   -0.01561000
Se    3.44360000   17.78416000   17.46379000      0.750108   -0.26611600    2.49426800
Se    0.96118000   19.62598000    7.18785000      0.662665    0.09131200   -0.27498100
Se    4.96795000   22.43699000   16.03062000      0.100391    0.25918300   -0.23693200
Se    9.34323000    1.06596000    5.56328000     -0.282298    0.42715800   -0.66733700
Se    7.97885000    2.81741000   17.99763000      0.151301   -0.10634300   -0.85575200
Se   11.70612000   12.86438000    9.43374000     -0.385223   -0.98368800   -0.53370500
Se    9.57966000   11.19747000   17.04574000     -0.261763    0.60353400    0.94804400
Se    8.57215000   14.31615000    8.70579000      0.541834    0.18396800   -1.06046100
Se   10.95233000   17.75022000   14.59133000      0.455407   -0.34610800   -0.08016100
Se   11.73431000   19.78136000    3.98177000      0.174876    0.88134200   -0.67948600
Se    9.05459000   17.82511000   17.50956000      1.537693    0.30606300    0.85151100
Se   12.24787000    3.35523000    6.58343000      0.309462    0.50206500    0.20627500
Se   17.63544000    3.18559000   15.74820000     -0.630610    0.55341300    0.38091600
Se   16.00865000    8.48702000    6.10503000      0.684261    0.19255000   -0.84577900
Se   16.47451000    9.35629000   12.16817000      0.241149   -0.67077000    0.05889900
Se   16.45429000   11.56550000    5.69699000      0.145173    0.19764900    0.16409400
Se   15.32579000   16.90356000   15.03567000      0.025274   -0.04697900    1.25295100
Se   17.17104000    2.97056000    3.54369000     -0.401101   -0.23122500    0.24060900
Se   18.21407000    3.32553000   12.07693000      0.260276    0.15501500    0.87955200
Se    1.75293000    2.48761000    6.38379000      0.394620    0.63262200    1.12056300
Se    0.94459000    4.60580000   14.83539000     -0.112663   -0.65474800    0.36640800
Se   19.07438000   12.64040000    8.02431000     -0.030881    0.24019800    0.30623400
Se   20.85979000   12.12565000   14.05826000      0.439188   -1.52805000    0.15441700
Se   21.55966000   13.54385000    7.30689000     -0.697300    0.34110800   -0.15056900
Se   20.22070000   18.33088000   12.80990000     -0.225092   -0.48610700   -0.50601900
Se   20.11109000   18.91142000    9.22752000     -0.117523    0.46059400   -0.63030300
Se   20.76228000   20.68343000   15.85539000      0.655961    0.61852400   -0.09321700
Se    3.19868000    1.27856000    4.11232000      0.117323    0.14666000    0.46704200
Se    6.69886000    2.96251000   15.95065000      0.043651    0.01618200    0.04825100
Se    1.52505000    6.13659000    0.26091000      0.363483    1.04591300    0.17775000
Se    5.39169000    8.93997000   12.80140000      0.725116    0.16495400    0.15768200
Se    2.31453000   12.63527000    2.15278000     -0.041055    0.57510300    0.39355400
Se    4.88264000   15.15093000   15.03812000     -0.427454   -0.83508800    0.05778100
Se    4.09705000   18.27275000    2.45219000     -0.719777   -0.76603600    0.09491300
Se    4.60417000   18.31044000   12.46339000      0.102167    0.34474500   -0.12207800
Se   10.60207000    0.95310000    2.13052000     -0.642598   -0.72786500   -0.58925700
Se   10.27974000    0.18560000   16.29447000      0.595666    1.35717400    0.33915400
Se    9.63474000    7.52657000    2.77780000      0.724369    0.05239500   -0.42172000
Se    7.80185000    8.91521000   15.94284000      0.075894    0.89190500   -1.42676600
Se   10.64489000   11.82482000    3.01064000      0.359652   -0.68260400   -0.13662700
Se   10.33203000   11.32412000   11.65359000     -0.374645   -0.25738200    0.09285300
Se   10.35658000   19.19090000    2.04354000     -0.593933    0.37651200    0.21557800
Se   14.81126000   18.63830000   13.50013000      0.294372    0.44547100   -0.26058700
Se   15.17455000    3.28141000    5.39010000      0.191007    0.14634900    0.74536900
Se   13.74834000    1.58085000   15.06072000      0.101966    0.56801100   -0.47609200
Se   15.27124000    6.14660000    3.26934000     -0.655384    0.51030000   -0.26989400
Se   12.72940000    7.42017000   11.53055000      1.558405    0.62062400   -0.95606400
Se   16.07802000   10.89893000    2.69959000     -0.163913   -0.88220600   -0.35632100
Se   17.30835000   14.33279000   16.41203000     -1.568056    0.23569300    0.92800500
Se   15.05501000   15.56941000    4.41554000      0.007960    0.31136500    0.00779200
Se   14.42270000   22.53111000   12.60734000     -0.360846   -0.95613900   -0.25085200
Se    2.33530000   21.31512000    5.71842000     -2.509875   -0.58796000    0.42702200
Se   19.46534000    1.10257000   12.99099000      0.080410   -0.78419000   -0.34231500
Se   22.44911000    7.21776000    3.87584000     -0.122009    0.18375200   -0.24547100
Se   19.81791000    8.71934000   13.88521000      0.070998   -0.34746600    0.09863900
Se    1.33771000   13.86518000    5.85753000     -0.502696   -0.06943400   -0.56717000
Se   22.52394000   15.20025000   15.26554000      0.276835    0.61376500   -0.18159000
Se   21.56010000   16.71619000    5.46450000      0.457954    0.61205700   -0.41495800
Se   21.25068000   20.91773000   10.90846000     -0.076132   -0.19305500   -0.00592200
Se    2.11376000    4.80186000    3.49206000     -0.382840   -0.09505400   -0.21168300
Se    2.93512000    5.28110000   11.74467000     -0.304770   -0.14734100   -0.08326900
Se   21.68826000   10.63957000    4.08968000     -0.326455    0.11703700   -0.46932700
Se    1.26352000   10.83903000   11.91425000      0.750569   -0.62075600   -0.08498900
Se   22.39166000   15.82418000   18.61052000      0.888487    0.71938200    0.26971000
Se    3.69674000   15.23935000   12.60281000      0.894135    0.79682900   -0.07288800
Se    1.86849000    0.51388000    2.21376000     -0.832688    1.30399800    1.41984600
Se    4.83177000   20.48224000   14.53066000      0.314235   -0.23969000    0.26737500
Se    9.89771000    5.16118000    4.88856000     -0.545079   -0.33023700   -0.63294900
Se    8.43419000    2.28656000   14.05868000     -0.052087    0.17467600    0.23239600
Se    6.93470000    6.99822000    5.21994000     -0.048501   -0.09941200    0.35086100
Se    7.92776000   12.56623000   14.51421000      0.047649    0.40239300    0.33748200
Se    5.86801000   15.12903000    1.55378000      0.022460   -0.59434400    0.25020900
Se   11.19181000   15.65366000   11.12260000     -0.938738   -0.45290500    0.44293000
Se    7.69844000   20.01034000    6.06852000     -0.225162    0.47510900   -0.58044700
Se    7.74806000   20.54570000   15.18086000     -0.167177   -0.69386100   -0.38818500
Se   14.71737000    1.88152000    2.76152000     -0.236024   -0.78050200   -0.19582300
Se   10.90870000    4.61400000   11.97801000     -0.354525   -0.28217800    0.08854300
Se   13.71265000    8.51732000    3.41543000      0.475071   -1.43195900   -0.56198200
Se   10.63158000   10.41763000   13.89179000      0.804932    0.09677500   -0.29155800
Se    9.25610000   14.15338000    4.98719000      1.172343    1.09327400   -0.31712600
Se   15.01844000   15.55489000   10.84184000      0.307094   -0.37940200   -0.02576600
Se   14.95179000   19.95752000    1.96732000     -1.255694   -0.08742500    0.41918700
Se   13.28586000   20.71920000   13.83770000      0.243050    0.24926800   -0.28823400
Se   17.78389000    5.77733000    1.27202000     -0.276616   -0.03958700   -0.38653900
Se   14.46773000    4.83601000   13.34676000     -0.534215   -0.22250500    0.26725700
Se   18.53002000    8.22830000    3.54448000     -0.335747    0.48652400   -0.28441600
Se   21.29722000   13.31415000   12.15965000     -0.464111    0.24699500   -1.09417500
Se   21.05270000   14.22044000    3.28121000      0.523974    0.41212400    0.14039700
Se   16.91471000   16.74925000   12.21719000      0.651197   -0.15485600   -0.18321200
Se   17.01172000   20.81966000    5.18505000     -1.006476    0.89929100    2.28175500
Se   16.38569000    1.12044000   10.06904000     -0.163405    0.48846400   -0.00309600
