384
22.54784000 22.54784000 18.93360000
Ge    5.73038000    4.28352000    8.73351000      0.846469    0.52077000    0.64800500
Ge    4.30348000    8.16015000    2.97062000     -0.041706   -0.52228100    0.35971400
Ge    2.04977000   12.12331000    6.77181000      0.278735    0.52936700    0.00968200
Ge    6.92161000    8.60977000   16.34523000      0.218675    0.26043700   -0.53943700
Ge    3.23537000   13.89980000   10.56583000      0.410850   -0.24404600   -0.37841200
Ge    8.64062000   17.51814000    0.26790000     -0.019476    0.53231400   -0.59725600
Ge    6.62053000   18.52101000    8.03078000     -0.199716   -0.71042400   -0.12919800
Ge    4.57296000    3.46891000   15.85248000     -0.428689   -0.71785200   -0.80214900
Ge    9.39287000    7.10637000    8.55278000     -1.006194    0.87591900    0.12521100
Ge   11.13177000    6.66637000    1.56519000      0.505467   -0.14089700   -0.73936400
Ge   11.92398000    8.30378000    9.91105000      0.447309   -0.13039200   -1.67475500
Ge   10.28336000   12.25070000    0.31116000     -0.365476   -0.79039000    0.10833900
Ge   11.08604000   17.75170000    9.32792000     -0.193545   -0.02458700   -0.43814100
Ge   12.44166000   16.12854000    0.75671000      0.065472    0.34008800   -0.72752100
Ge    9.55442000   21.29303000   11.10492000     -0.332193    0.28778600    0.04013800
Ge   13.28710000    1.32953000    1.03530000      0.727575   -0.23967300    0.63560200
Ge   18.81751000    5.41050000    9.99329000      0.245690   -0.12569700   -0.98167100
Ge   17.94802000    7.52825000   18.05756000     -0.525439   -0.22909200    1.05617300
Ge   17.19161000   14.79188000   10.81339000     -0.193715   -0.72994300    0.78283400
Ge   17.38579000   10.65781000   18.05408000     -0.825372    0.20037400    0.48049400
Ge   12.86770000   14.34671000    9.23764000     -0.789726   -0.34001300   -0.86970700
Ge   17.45046000   15.37780000   17.54472000     -0.274101    0.18152400    0.61372200
Ge   14.77600000    3.57703000   11.64025000     -0.208071    0.35913700   -0.25954300
Ge   18.56415000    2.47979000   18.04661000      0.252673   -0.22130500    0.18901600
Ge    0.86643000    6.12070000    9.45256000     -1.155235    0.62325500    0.28492400
Ge   20.35055000    3.89819000    4.49680000     -0.479143   -0.68089400    1.00715200
Ge   21.64985000   10.89516000    9.50541000      0.824682   -0.34413700   -0.10439800
Ge   20.23829000    9.13883000    0.03343000      0.047416   -0.76913100    0.50178000
Ge   20.26358000   14.46235000    7.00756000      0.350342   -0.26283600    1.43395300
Ge    5.39902000   14.78836000   17.16454000      0.005511   -0.68713800   -0.39746200
Ge   17.75078000   22.07070000    6.86721000     -0.287636    0.56705100    0.38733700
Ge   22.26186000   19.61304000    4.71713000      0.117421    0.24728600    0.47324200
Ge    3.90391000    7.73011000    6.77537000     -0.155359    0.17634000    1.00413000
Ge    1.41126000    7.62040000   18.90474000      0.655668   -0.62143100   -0.42517900
Ge   20.67827000   11.05286000    3.56377000      0.658687   -1.06579700   -0.20176500
Ge    4.43563000   12.17702000   14.13962000      0.478325    0.16984000    0.45511900
Ge    3.43864000   15.30377000    4.63765000      0.036583    0.17965900    0.74330800
Ge    1.12691000   20.60859000    1.02142000     -0.756821    0.29319300   -0.30164700
Ge    2.90818000   18.30312000   10.74961000      1.238491   -0.39339600   -0.30563800
Ge    0.66102000    1.78772000   17.10485000     -0.505779   -0.42141500    0.09014400
Ge   10.07764000    2.30027000    8.68632000      0.532279    0.76193700    0.08633500
Ge    6.20570000    5.15165000   16.70629000      1.644285    0.90343600   -0.22807200
Ge    8.43735000    7.83943000    4.67993000      0.221488    1.32096800    0.07303000
Ge   11.09601000    6.59508000   16.19980000     -0.874753    0.84818900   -0.46591100
Ge    6.76153000   16.19210000    9.50417000     -0.378409    0.17892000    0.01873300
Ge   10.84612000   14.84600000   17.31665000      0.394264    0.74009600   -0.52910200
Ge   10.07028000   21.83012000    6.85432000     -0.389642    0.65825200   -0.64905900
Ge   11.08290000    1.41014000   13.69595000      0.532830   -0.00546900    0.62093700
Ge   11.70633000    7.98535000    5.60707000      0.358864   -0.04239600    0.23970100
Ge   15.31332000    3.48957000   17.05222000     -0.351826   -0.67913200   -1.00512200
Ge   15.55010000    8.75013000    6.50340000      1.315221    0.08730000    0.16174000
Ge   15.42226000   13.20453000   15.52709000      0.069863   -1.82079300   -0.19235400
Ge   11.97302000   13.78202000    5.98380000     -0.048047    0.03747800    0.10074500
Ge   15.53995000   19.47321000   18.04045000     -0.298366    1.09158400   -0.46130600
Ge   13.91243000   20.97614000    8.15884000      0.334793    0.58897100    0.45300700
Ge   18.78085000   21.61497000   13.62300000     -0.848549    1.00239300   -0.45935100
Ge   22.10341000    4.17416000    8.19883000     -0.535166   -0.18844800   -0.24830400
Ge   20.76523000    5.80513000   14.31941000      0.318405   -0.06114400   -0.53870600
Ge   18.63413000   10.99953000    7.37749000     -0.246965   -0.94457800   -0.30847300
Ge   22.49513000   14.82543000   16.49176000      0.021847   -0.71547500    0.15371800
Ge   17.33001000   16.08893000    6.14025000     -0.016422   -0.25071800   -1.13741300
Ge   16.79212000   18.45283000   15.45002000     -0.105584    0.00584900   -1.35326300
Ge   21.27593000   22.44217000    6.45443000     -0.419390    0.15084100    0.47485900
Ge   18.81154000   21.93270000   17.28445000     -0.282868   -0.18891000    0.13612700
Ge    6.35934000    0.55057000    7.43878000      0.665824    1.20074800   -0.56451800
Ge    3.42010000    2.53976000   12.58515000      0.056052   -1.15960200   -0.67305500
Ge    0.10027000   10.85499000    5.21966000     -0.420207   -0.96054700    0.39309000
Ge    2.91011000    7.66426000   10.55782000     -0.194025   -0.32976800   -0.46601700
Ge    0.41944000   16.72923000    3.88487000     -0.998907   -0.46210300    0.36247600
Ge    3.43353000   17.87394000   15.28010000      1.133554   -0.25467100    0.31068600
Ge    5.22526000   21.59491000    9.17615000     -1.201389    0.12826600    0.63579300
Ge    8.80370000   19.91194000   16.10806000     -1.224051    1.40106000   -0.57657000
Ge    5.27209000    5.16518000    1.40720000      0.095032   -0.51730200    0.70099100
Ge    9.70105000    3.54758000   17.82695000     -0.326504   -0.55243000   -0.63582000
Ge    7.07057000    4.64963000    5.34615000      0.366456   -0.18613700   -0.17024000
Ge    8.82098000    9.62843000   13.28579000     -0.362462   -0.14387700    0.37421300
Ge    5.32450000   14.40456000    2.94497000      0.164456   -0.42875100   -1.28303000
Ge   10.47342000   11.29446000   16.18128000     -0.747112   -0.00383000    0.43337300
Ge    7.08987000   21.01976000    4.08828000      1.489595   -0.30437500   -0.47280500
Ge    9.37800000   16.28107000   12.88369000      0.380119    0.06201300   -0.05539800
Ge   12.14614000    1.90222000    5.00532000      0.223437   -0.18519500   -0.36681000
Ge   13.38734000    4.11310000   15.07612000      0.651996   -0.20502800    0.11421400
Ge   17.64634000    3.81955000    6.53119000      0.316867    0.16903000    0.28849000
Ge   15.07045000    9.52388000   15.24860000     -0.384353    0.79403500   -0.82432200
Ge   14.78573000   13.29989000    3.30466000     -0.911881    0.82659600    0.05488300
Ge   13.48232000   15.40897000   12.41273000     -0.378341    1.07761300   -0.11463900
Ge    9.65652000   18.46821000    4.64817000     -0.134571    0.29229200    0.63334600
Ge   12.36589000   20.25884000   16.03542000     -0.380593    0.07047000   -0.24345500
Ge    0.97541000    6.18543000    5.94254000     -0.293656    0.38540800    0.26204500
Ge   22.22611000    3.94936000   12.13047000     -0.105954    0.08258900   -0.30397000
Ge   20.44202000    8.17020000    7.32790000     -0.683496   -0.36022400    0.23101500
Ge   17.12194000   11.77372000   12.10851000     -0.247327   -0.65651500   -0.23600900
Ge   21.27077000   16.88477000    0.69169000     -0.100809   -0.53752900   -0.44897100
Ge   19.42666000   15.31390000   14.15047000     -0.379050   -1.00002000   -0.04800600
Ge   18.69395000   20.63020000    4.82958000     -0.300608   -0.30562800   -0.02359100
Ge   21.94980000   20.13592000   12.64916000     -0.384763    1.54559500   -0.20099700
Ge    3.06810000    1.50422000    2.94559000      0.970525   -0.52028300    0.04770700
Ge    5.86533000    1.32184000   12.04254000      0.450642   -0.53178800   -0.16136000
Ge    5.99236000    9.49118000    4.52917000      0.026276    0.48669200   -0.88341300
Ge    6.95104000    4.81905000   12.63730000     -0.018212    0.20237000   -0.06537900
Ge    5.09043000   11.92187000    0.27784000      0.936547    2.47185800    0.26536600
Ge    4.58625000    9.95912000   11.61096000      0.104435    0.79777300   -0.11559000
Ge    2.58332000    0.33439000    8.49189000     -0.005782    0.39245900   -0.11450900
Ge    7.15665000   18.60418000   13.64590000      0.049883    1.41264200   -0.70598700
Ge    8.63237000    3.87811000    3.40326000      0.405202    0.41008900   -1.91825600
Ge    9.72053000    4.36411000   11.59125000     -0.043272   -0.02398700   -0.00085400
Ge   12.56997000    9.58146000    2.54245000     -0.595411   -0.89620500   -0.92949400
Ge   11.84232000    8.13161000   12.43203000      0.827766   -0.44881200    1.33094900
Ge    9.25480000   13.85704000    2.11368000     -0.227948    0.70656800    0.09783000
Ge    8.73852000   13.40500000   10.39397000     -0.145432   -0.07456000   -0.22623600
Ge   10.62382000   21.38148000    1.71546000      0.211513   -0.00263000   -0.00159600
Ge   11.74255000   19.20063000   12.35273000     -0.023510   -1.38170400    0.45488900
Ge    0.02028000   21.72762000   16.48465000     -1.701384    0.52200300   -0.13214200
Ge   13.90726000    0.92508000   10.05764000     -1.641468    0.35668500   -0.95885600
Ge   16.33857000    6.90345000    2.27959000      0.298908    0.36997700    0.46783600
Ge   16.32423000    6.86911000   12.59955000     -0.653383    0.55500400   -0.53907900
Ge   18.19640000   12.64390000    1.22499000     -0.025816    0.57235800   -0.05113600
Ge   15.29828000   16.58156000    7.83509000     -0.493411   -0.94270000    0.71322500
Ge   16.81680000   20.97513000    2.34341000     -0.272174    1.20792400   -1.10242900
Ge   16.42807000   20.36019000   11.24371000     -1.132360   -0.67640200    0.90073800
Ge   19.59871000    1.40446000    3.16967000     -0.685243    0.49909000   -0.08228800
Ge    0.45455000    1.39036000   10.90045000     -0.576450   -0.49394200   -0.09925100
Ge   21.49378000    7.82189000    2.15467000     -0.073827    0.32403900   -0.10352500
Ge    0.20886000    8.89502000   14.24410000     -0.859060   -1.31194500    0.14643500
Ge   20.45720000   12.72328000   18.46364000      0.513989    1.27040800    0.89564400
Ge    0.09515000   15.55151000    9.96896000     -0.359989   -0.59968500   -0.33352000
Ge    3.98973000   21.40194000    5.64205000      0.124859   -1.78449400    0.09103300
Ge   19.04325000   18.20639000   11.81978000      1.116560   -0.44937100   -0.29410900
Se   20.27934000    0.57473000    0.77562000     -0.783104   -2.23818100    0.94345900
Se    0.13009000    0.88357000    8.39870000      1.137037    0.09359900    0.60519800
Se    4.60601000   11.64599000    4.09410000     -0.296050   -0.36059800   -0.85581700
Se    0.80348000    6.39968000   14.11280000     -0.522316    0.03840200    0.34478600
Se    0.05992000   12.48721000   17.44129000      0.720453    0.62574400   -0.07645400
Se    1.19239000   12.95553000    9.17983000     -0.263687   -0.12653900    0.31704000
Se    2.13026000   18.31882000    4.36791000      0.236170   -0.03489500    0.59919300
Se    2.04109000   15.92749000   11.67683000      0.006794   -0.27081100   -0.78947400
Se    3.96594000    2.09839000    0.30935000     -0.046960   -0.22659300    0.28387800
Se    7.61512000    3.01798000   10.66045000     -0.699151    0.30886600   -0.17478900
Se    7.14571000    6.63700000    3.04010000     -0.356492   -0.19510400   -1.20286800
Se    9.65400000    7.45132000   11.73194000     -0.602552    0.12941300   -0.12728100
Se    7.67026000   10.26837000    1.16688000     -0.082371    0.44034900    0.35459700
Se    6.61769000   11.06305000   12.73429000      0.597158    0.18721200   -0.76829500
Se    4.73112000   20.69769000    3.34442000     -0.649519   -1.11321900   -0.78378600
Se    9.14719000   18.43904000   11.19250000     -0.244711   -0.59155100    0.51273100
Se   11.05394000    2.56718000    0.89804000     -0.578936    0.04127700    0.60363600
Se   13.76876000    1.97920000   13.49054000     -0.938102    0.15438000    0.48545900
Se   11.82423000    8.63211000   18.91742000     -0.373617   -0.52713000   -0.27983900
Se    9.99746000   11.21976000    9.33898000     -0.118076    0.12407100    0.20201200
Se   13.01619000   15.12678000    2.87397000     -0.410943    0.14786800    0.54657800
Se   11.14682000   10.50818000    6.83865000      0.221581    0.40401600   -0.34581600
Se   14.35557000   18.87984000    1.15467000     -0.173114   -0.58483400    0.76002400
Se   13.40591000   16.69392000    9.61526000      0.716176    0.97285600    0.53691300
Se   18.30795000    3.45548000    1.53453000      0.118387    0.65588500    0.12547200
Se   17.00904000    1.72298000   13.48632000     -0.254090   -0.17629700    0.65776900
Se   15.48169000    6.86475000   18.46530000     -0.104586    0.11325000   -0.61094600
Se   18.07396000    5.06356000   12.28069000     -0.783506    0.51632700    1.36385000
Se   17.80282000    9.46249000    1.44497000      0.917254    0.02689600   -0.74850000
Se   16.19538000   13.70023000    5.31714000     -0.078971    0.65293100    0.25144400
Se   20.54376000   19.64175000    0.96158000      0.927347    0.78453400   -1.09048000
Se   17.19541000   19.65172000    9.01857000      0.016006    0.13725000   -1.06417800
Se    0.81116000    0.63267000    2.71108000     -0.527121    0.32749400   -0.02959000
Se    6.81412000    6.94235000    9.23257000     -0.031657   -0.54257300   -0.04107500
Se    7.51986000   11.37437000    3.30480000      0.049893   -0.48739700   -0.75873500
Se    5.29269000   10.53395000    9.27482000     -0.260626    0.46330100    0.06352600
Se    3.49854000   13.77639000    0.70069000      0.633068    0.11975000    0.94886600
Se    2.95684000   11.91026000   12.20660000     -0.784011    0.51899300    0.23923600
Se    2.30499000   22.25377000   18.31771000      0.503878   -0.51257300    0.37311100
Se    6.42486000   19.97167000   10.36282000      0.578253   -0.89394100    0.26349700
Se   12.88146000    5.79811000    4.68090000      0.181798    0.32170500   -0.31238500
Se    7.67282000    3.49919000    7.39503000     -0.461331   -0.23925500    0.44109200
Se   12.41988000   11.98239000    2.13304000      0.139672    0.38791300   -0.91539900
Se    7.58284000   10.52835000   10.18669000      0.077268    0.11433700    0.44153800
Se   10.13848000   16.31731000    1.84444000      0.184296    0.00278900    0.35782700
Se   12.68973000   13.61590000   13.77389000     -0.459543   -0.61436500    0.84277200
Se    9.72879000   21.77290000   17.81884000     -0.147837   -1.22470000    0.70838900
Se    7.59573000   21.85039000   12.72716000     -0.977652    0.91520000    0.41053500
Se   14.99585000    5.08990000    1.04275000     -0.731652   -0.51676600    0.10905800
Se   16.58680000    6.25682000    9.12449000     -0.274796   -0.10490300    0.05615800
Se   14.95900000   11.32163000    0.21145000      0.291675   -0.82536900    0.02611600
Se   15.04547000   11.69451000   13.49435000     -0.308335   -0.08715800    0.69406300
Se   18.58489000   15.55741000    1.08990000     -1.349378   -0.31480000   -0.15173100
Se   15.57007000   11.01272000    9.94372000      0.572353   -0.51802000    0.09277000
Se   16.33370000   22.09270000   18.89709000      0.476978   -0.65769700    0.45978500
Se   15.42082000   18.90568000    7.44244000      0.739335    1.14432500   -0.49924700
Se   21.98200000    4.17767000    2.71133000      1.084526   -0.81936100   -0.56004900
Se   21.14658000    6.58287000   11.27923000      0.226644    0.02927300   -0.27818000
Se   21.40555000    5.59269000    0.69136000     -1.767006   -0.20761000    0.28708200
Se   21.52258000   10.24855000   12.24768000     -1.222372    1.08729000    0.08317600
Se   19.98538000   15.25930000   17.48772000      0.610077    0.06219600    0.25897900
Se   20.47065000   15.87521000   12.21880000      0.532640    0.71346800   -1.39171800
Se   20.67673000   21.84786000    4.07466000      0.201262   -0.65709600   -0.56565000
Se   18.45708000   21.41046000   10.74868000      1.205501    0.64735900    0.96772000
Se    2.93066000    5.74726000    8.30847000      1.416161    0.08807900   -1.07789900
Se   21.31427000    2.38896000    0.01304000      0.595540    1.42048600   -0.75473600
Se    2.95966000    9.58261000    8.97449000     -0.280101   -0.26214100   -0.40356000
Se    0.56223000    9.50953000   17.61512000      0.052223    0.27505400   -0.02413800
Se    4.01234000   17.65498000    8.19523000     -0.288677    0.09597400    0.21494500
Se    1.00889000   17.98341000   15.15586000     -0.805894   -0.16496000   -0.16061100
Se    0.79556000   18.27490000   12.54827000     -0.437340   -0.80351100    0.56516000
Se    2.06385000   20.64265000   16.51019000      1.353554   -0.81741600    0.46599200
Se    2.82178000    4.42509000    5.23408000      0.239660   -0.27328000    0.04429800
Se    5.61246000    6.84305000   18.45581000     -0.019310    0.57835800   -0.02504900
Se    6.37170000    9.05421000    6.84426000     -0.941477   -0.50933900    0.10647600
Se    3.44376000    7.23866000   17.48627000     -0.228408   -0.05160900   -0.16511100
Se    6.32800000   14.58798000   11.25885000      0.536569   -0.27023800    0.07875500
Se    6.23173000   17.75361000   18.23946000     -0.370858   -1.57850000    0.55161900
Se    9.06888000   19.57776000    6.97875000     -0.195958   -0.77762000    0.22812100
Se    5.91844000   19.68117000   17.16378000      0.437428    1.30016100   -0.75766200
Se   10.53411000    1.61940000   11.39286000      0.083685   -0.02050600   -0.81636400
Se   12.28934000    4.94844000   17.35888000      0.427300   -1.00367900    0.95696200
Se   13.47867000    7.93194000    7.45033000     -0.805648   -0.56030900    0.68372800
Se   14.01231000   11.11675000   16.66060000     -0.111329    0.81167300    0.33542100
Se   10.64501000   15.63262000    7.66206000      0.248414    0.03081100   -0.38558300
Se   14.86759000   16.23812000   18.17383000     -0.401215   -0.00009500   -0.00718900
Se   12.30772000    0.41916000    7.19723000     -0.633766   -0.17126400    0.41941200
Se   13.31192000   21.39063000   18.11942000     -0.449896    0.12365700    0.62056100
Se   13.39577000    3.54447000    9.54915000      0.132881   -0.90173600    0.41649100
Se   21.83417000    3.54690000   15.84250000     -0.246152   -0.07119600   -0.32381200
Se   19.32514000   11.48541000   10.29108000     -0.081496   -0.56748400    0.20419000
Se   17.27299000    9.16012000   15.97723000      0.388444   -0.02665300    0.95762400
Se   13.82638000   16.08000000    5.95925000     -0.937745   -0.08902600   -0.63522800
Se   20.52195000   13.30951000   14.93176000      0.786135   -0.20411600   -0.26470600
Se   20.41756000   20.18588000    7.58893000     -2.030814    1.02269500   -0.30371700
Se   18.64324000   19.19677000    2.38820000     -0.964206   -0.06568500   -0.08066700
Se    4.48442000    2.16352000    9.08481000     -0.394905   -0.35482300    0.16906400
Se    2.02383000    3.24974000   18.59597000      0.477402    0.60065800    0.31982900
Se    8.58154000    9.94620000    6.90761000      0.741131    0.34522600    0.06256900
Se    4.74018000    9.86142000    1.20381000     -0.449534   -2.14778700    1.27709400
Se    6.45301000   16.52677000    5.98664000      0.320979    0.12311400    0.05207400
Se    4.16121000   10.62281000   17.46780000      0.405026   -1.40095800   -0.50303400
Se    0.73660000   19.06981000    9.74161000     -1.015940   -0.32926300    0.63100100
Se    1.20466000   18.15293000    1.16966000      0.580589   -0.42247900   -0.03829200
Se    8.70435000    0.25113000    8.77561000     -0.479298   -1.48040200    0.81736900
Se    6.96495000    3.34229000    0.50672000      0.050299   -0.31374400    0.58232300
Se   10.63593000    5.24547000    9.37372000      0.610371   -0.92258400    0.35740600
Se    8.48845000    5.66972000   17.86033000     -0.284276    0.53767200    0.38048400
Se    8.76877000   12.64612000    5.37128000      0.051024    0.78550200    0.62795400
Se    8.65435000   13.76705000   17.11686000     -0.752907   -0.18351500    0.48895900
Se   11.76669000   20.45970000   10.15582000      0.602024    0.19624200   -0.42033700
Se   12.30684000   13.03154000   18.17667000     -0.111581    0.56172500   -0.18578700
Se   15.73337000    0.44897000    7.78120000     -0.531986   -0.06633400   -0.23494900
Se   15.59328000    2.68172000    0.36116000     -0.164373   -0.44581400    0.85382900
Se   16.98492000    3.54054000    8.93441000      0.005128    0.95837200    0.18705400
Se   13.48329000    7.70052000   15.00766000      0.042402    0.05479900   -0.09307100
Se   16.82717000    8.99686000    8.92122000     -0.333279    0.32326100   -0.15273300
Se   15.19434000   14.05742000    0.17379000      0.334412   -0.21066700    0.06824700
Se   12.21751000   18.34294000    5.15678000      0.919482   -0.40034900    0.27683700
Se   17.60328000   18.21966000   17.68193000      0.713066   -0.19546600    1.26115400
Se   20.78483000    2.91382000   10.19761000      0.508603    0.28935000   -0.19360500
Se    0.21285000   22.30305000   13.74939000      0.379154   -1.09767100    0.12577400
Se   19.94642000    8.24255000    9.82111000     -0.378401    0.23949400    0.49837400
Se    0.14721000    5.72557000   17.80318000      1.151929    0.43730800   -0.65863100
Se   21.09476000   11.82902000    7.10213000      0.068458   -0.10138200   -0.41079100
Se   19.77169000   10.77646000   17.23982000     -0.049996   -0.50560400   -1.01070400
Se   19.15528000   16.97214000    7.53783000      0.310405   -0.53207300    0.40538200
Se   19.61525000   17.37766000   15.17168000     -0.209936   -0.34212600    1.26484000
Se    3.24891000   21.59399000   10.96428000     -0.171726    0.57367000   -0.29553000
Se    1.98408000    1.89369000   14.54378000      0.319451    0.47410900    0.35701300
Se    0.23483000    8.40465000    7.79759000      0.618341   -0.58082200    0.46629900
Se    1.94025000    9.88817000   15.41674000     -0.114340    0.06405900    0.98252300
Se    3.22113000   15.34415000    7.51034000      0.522333    0.41023600    0.14943300
Se    3.30733000   12.48680000   16.52360000     -0.326900    1.83576900   -1.12397500
Se    0.65604000   16.20660000    7.43016000      0.181656    1.82268000    1.33710900
Se    2.75956000   20.40170000   13.25239000      0.857205    0.61296800    0.41048800
Se    5.78048000    0.16581000    2.54657000      0.463499    1.04166100   -0.69707600
Se    6.67263000   21.50017000    0.48190000     -0.048930   -0.30733100    0.31404400
Se    9.46954000    6.17386000    6.11432000      0.551011    0.29966400    0.17849500
Se    4.40861000    4.60704000   13.26132000      0.430829    0.34453000    0.95676700
Se    5.10856000   13.18092000    5.87414000     -0.441326    0.10817600   -0.36754300
Se   10.03811000   13.84263000   15.05042000      0.333914   -0.00980000    0.14390300
Se    7.10843000   17.66528000    3.96518000     -0.807682    0.19124600   -0.05437000
Se    8.47960000   17.30485000   15.11260000     -0.186690   -1.39064200    0.35600700
Se   13.56126000    0.03067000    3.54542000     -0.215044    1.00581700   -0.45719900
Se   13.25278000    0.49618000   16.45967000      0.462974    0.52041800   -0.76490700
Se   14.30937000    9.64835000    4.24074000     -0.300831   -0.14491300    0.61723000
Se   11.62998000    5.18260000   13.77950000     -0.083421    0.73662800   -0.44284800
Se   14.00104000   11.83899000    5.46986000      0.521992    0.11085700   -0.27372300
Se   13.78406000   14.86636000   15.64892000     -0.419923    0.68376500   -0.37384400
Se   12.17791000   19.31246000    7.36175000     -0.404080   -0.46151400   -0.33168000
Se   12.10028000   19.17161000    0.51251000     -0.252071   -0.83198800    0.08415100
Se   19.00340000    1.66095000    6.86465000      0.862199   -0.85839500   -0.04990300
Se   20.23712000    1.28617000   16.01002000     -0.653906    0.24844300   -0.40773100
Se   20.00279000    5.60653000    7.66393000      0.552645   -0.63830800   -0.93284500
Se   19.48582000    6.78478000   16.29324000      0.740687    0.15822300   -0.79074700
Se   19.11172000   12.81900000    3.52977000      0.094201    0.08302700    0.19947200
Se   17.29408000   14.59381000   13.33774000     -0.754724   -0.09693200   -0.12758200
Se   16.70020000   18.01198000    4.20356000     -0.271607   -1.06159600   -0.38361500
Se   16.78249000   20.94113000   15.28545000      0.773861   -0.09553900    0.06821700
Se    2.18397000    8.38168000    5.12023000      0.392274   -0.21052700   -0.18571300
Se    3.56916000    7.43756000   13.63751000     -0.220890   -0.53000100   -0.37868900
Se    1.30651000   12.51634000    4.08823000      0.551196    0.31659500   -0.74066100
Se    4.70339000    9.25587000   14.42795000      0.636344    1.16096800    0.36543500
Se    5.47613000   14.26162000    8.12300000      0.016385    0.72141500    0.87379700
Se    3.74400000   16.50626000   17.66888000     -0.121025    0.63543100   -0.34144000
Se    3.25231000   20.47273000    7.91064000     -0.391332    0.03805900    0.06883600
Se    6.27983000    0.62029000   14.61711000      0.077258   -0.28259200   -0.54157000
Se    8.66241000    0.97086000    5.63914000      0.238020   -0.72812000   -0.60805500
Se    7.55602000    1.98734000   17.52086000     -0.261061    0.56699000    0.55066700
Se   12.40142000   11.49746000    9.04507000      0.560865   -0.18045500    0.28399100
Se    9.29917000    9.17333000   17.39835000      0.436112    0.22815200    0.33755000
Se    8.42641000   14.87996000    8.09048000      0.257274   -0.93835500    0.09215200
Se   11.58665000   16.86857000   13.93633000      0.442864    0.44639000   -0.96839200
Se   10.90189000   20.61432000    4.34638000     -0.152616    0.17803800   -0.63336400
Se   10.20893000   18.31270000   17.05294000      1.181787   -1.04313500    1.34619500
Se   10.23176000    3.48595000    5.16965000      0.267823   -0.26051200    1.50785200
Se   17.55561000    4.13705000   16.58963000      0.725308    0.78287300   -0.37759500
Se   17.85712000    7.32148000    5.80889000     -0.687870    0.24432000   -0.16748100
Se   17.32715000    9.17382000   13.25679000     -0.054736   -0.22815200   -0.90904800
Se   17.53124000   10.46480000    5.04616000      0.293252   -0.15433400    0.73316400
Se   14.13834000   18.43867000   15.94096000      0.519788   -0.56709300    0.63021700
Se   15.16185000    3.22745000    4.45531000      0.561048   -0.01130200    0.06408800
Se   18.85655000    2.83081000   12.59945000      0.333906   -0.72860100    0.08940900
Se    0.10957000    3.07749000    5.73868000     -0.984050    0.44535400    0.18831300
Se    1.87428000    4.17662000   15.49308000      0.304616    0.08427600   -0.35385500
Se   17.60533000   13.26478000    7.34183000      0.107848    0.58844300    0.58449400
Se    0.01464000   13.10458000   13.50755000     -0.165443   -0.10777700    0.07467400
Se   19.65173000   15.50265000    5.04731000     -0.621174    0.59307600   -1.67860400
Se   20.13340000   19.69080000   14.22078000      0.461844    0.13790900   -0.15194800
Se   20.98111000   17.56209000    9.68814000      0.553372    0.32637400   -0.14891700
Se   20.53082000   19.75607000   17.28290000     -0.131088    0.64155200    0.68161800
Se    3.55932000    1.05787000    5.74567000     -0.411755    1.46227300    0.22431400
Se    7.27487000    3.22846000   14.71528000      0.117613   -0.31074200   -0.13357900
Se    1.46890000    7.27536000    2.42653000      0.426697    0.62237300   -1.02747300
Se    5.26275000    7.53731000   11.37242000      0.892350   -1.45086700   -0.22299500
Se    1.28834000   15.27463000    2.12019000      0.214982   -0.70561400   -0.39680400
Se    6.09742000   15.12390000   14.50394000      0.213972   -0.53903600    0.82416700
Se    4.76258000   17.78046000    3.28830000     -0.040354   -0.66239400   -0.19192200
Se    5.28062000   18.19831000   11.93382000     -0.150641   -0.99818700   -0.58159700
Se    9.65170000    1.22069000    2.34322000     -0.220538    0.00329700    0.17273600
Se   10.35123000    0.95447000   16.53325000      0.345897    0.72149700   -0.62217800
Se   10.20691000    8.61588000    2.73863000     -0.354980    0.24883100    0.78912100
Se    7.47940000    6.44559000   14.83259000     -0.577911    0.69231300    0.43950600
Se   11.15236000   11.51440000    4.02985000     -0.865152    0.85305000    1.47333200
Se   10.42576000   11.37980000   12.57271000      0.118354    0.10079000   -0.84455900
Se    8.39594000   20.03722000    1.41906000     -0.028415   -0.13736800    0.04853400
Se   16.71302000   18.16033000   12.65446000     -0.715511    0.20930300   -0.21569500
Se   13.57634000    3.75266000    6.19474000      0.116556   -0.08454700    0.05670400
Se   15.81204000    1.02725000   16.16900000     -0.148932    0.58099500    0.27657500
Se   16.73774000    5.19552000    4.33775000     -0.430224    0.09289200    0.48206000
Se   12.88404000   10.44993000   11.36740000      0.092945    0.07218000   -0.37285500
Se   16.17903000   11.54996000    2.48519000      0.319859   -0.68186200   -0.97709600
Se   17.61448000   12.80737000   16.36132000     -0.211410    0.18050200    0.02872800
Se   16.08415000   16.47957000    2.39324000      1.100134    0.11982200    0.60486800
Se   14.53664000   21.79502000   12.27960000      0.169625   -0.64773400    0.23295500
Se    0.00396000   19.54134000    7.49388000      1.699975    0.01692200   -1.96553900
Se   20.80496000    1.11442000   13.44885000      0.150718    0.09096600    0.25605900
Se   21.36029000    6.23108000    4.05092000     -0.030563    0.14732600    1.42191100
Se   20.11610000    8.53740000   14.28008000      0.676976   -0.34977600    0.34793800
Se    0.70515000   14.63153000    5.76916000     -0.023395   -1.47525700   -0.78661000
Se    1.71545000   14.31290000   14.70389000     -0.494101    0.12035300   -0.19979300
Se   20.50975000   18.11945000    3.79118000      0.953320   -0.64741300   -0.06881300
Se   21.31494000   21.03246000   10.50735000     -0.192201    0.20138800    0.76166500
Se    2.57272000    3.85657000    2.92751000      0.336058    1.00661700   -0.08733300
Se    1.97072000    3.51317000   10.74740000     -0.717128    0.49773400    0.08396300
Se   22.02211000   10.31316000    1.40166000     -0.327130    1.43488700    0.23235600
Se    0.94229000    9.10856000   11.95127000      0.921132   -0.21548400   -0.45732100
Se    0.87341000   16.76573000   17.85447000     -0.658575    0.33832700   -0.28217300
Se    4.21148000   15.98762000   13.46897000     -0.211082    0.76699400    0.05186100
Se    1.51277000   20.96360000    3.49463000      0.332000    0.29520800   -0.38085900
Se    4.88693000   20.34519000   14.25317000      0.017100    0.67205600    0.51358900
Se    6.45783000    2.84526000    3.53633000     -0.781041   -0.04893500    0.40160100
Se    9.84617000    3.82804000   15.30788000     -0.090537   -0.43975000   -1.52199900
Se    4.96040000    5.87900000    5.22612000     -0.941011   -0.15801200   -0.20619100
Se    7.86080000   11.08110000   15.42709000      0.421272   -0.95118700    0.29163900
Se    7.20072000   14.34032000    0.83105000     -0.750752    0.06231400    0.37792700
Se   11.14536000   14.45494000   11.06437000      0.189135    0.26781400    0.14535200
Se    6.28274000   20.66524000    6.38980000     -0.274882    0.04688400    0.40656800
Se   10.30577000   20.30399000   13.88113000     -0.431903    1.19962500    0.39164600
Se   12.50927000    3.43467000    2.72966000      0.860138   -0.20881900   -0.87409400
Se   13.99831000    7.05474000   10.90024000     -0.240890   -0.15311900    0.42274300
Se   13.64128000    7.11632000    2.48432000     -1.121225    0.00660800    0.26017400
Se   11.54254000    9.69627000   14.59291000     -0.113572   -0.08007900   -0.40041700
Se    8.72145000   14.89632000    4.30858000     -0.065002   -1.37088700    0.37770100
Se   14.90812000   13.69962000   10.63361000      0.531218   -0.24611900    0.13802700
Se   14.78241000   20.59795000    3.59675000     -0.363769   -0.87233300    0.43840000
Se   13.84111000   19.55545000   13.55304000      0.336182    0.85487900   -0.59428600
Se   18.60396000    5.94475000    1.71526000      0.219646   -0.44367000   -0.54492900
Se   15.39856000    6.16031000   14.82795000      0.093985   -0.45257100    0.03535600
Se   19.45424000    8.57193000    4.06884000      0.441451    0.70901400   -0.01443300
Se   19.11315000   13.68833000    9.59915000     -0.065970    0.49675900    0.34950400
Se   21.64520000   14.26849000    1.46813000      0.385163    0.64592400    0.58398400
Se   17.63802000   16.90831000    9.86965000     -0.132875    0.85145500   -0.27192600
Se   17.11302000    0.40109000    3.83073000      1.254952   -0.16394200   -0.16400200
Se   15.98535000    1.36116000   11.08763000      1.747840    0.42811400   -0.15657900
