384
22.54784000 22.54784000 18.93360000
Ge    5.72598000    4.25872000    8.71704000      0.810700    0.43124000    0.62668100
Ge    4.32570000    8.18837000    2.96588000      0.010579   -0.64640300    0.59583300
Ge    2.06184000   12.16160000    6.72775000      0.184969    0.62528100    0.06113300
Ge    6.90465000    8.62057000   16.31484000      0.174412    0.15703100   -0.38842400
Ge    3.21984000   13.91321000   10.57551000      0.431106   -0.32961000   -0.34233600
Ge    8.61203000   17.54743000    0.26111000      0.053532    0.58653100   -0.71544800
Ge    6.58195000   18.50907000    8.03408000     -0.162311   -0.58534700   -0.37480300
Ge    4.57001000    3.51954000   15.84989000     -0.542597   -0.96508900   -0.92061000
Ge    9.40585000    7.13853000    8.54351000     -0.973193    0.82316900    0.47644000
Ge   11.09506000    6.69383000    1.61045000      0.737847   -0.70890500   -1.06265700
Ge   11.89852000    8.28500000    9.92169000      0.441300   -0.20370700   -1.58222300
Ge   10.32287000   12.28040000    0.32552000     -0.644479   -0.90684500    0.31426100
Ge   11.12113000   17.82879000    9.39419000     -0.628262    0.04878100   -0.68236300
Ge   12.45572000   16.06689000    0.76625000      0.054543    0.28106800   -0.74098600
Ge    9.45529000   21.30080000   11.03940000     -0.122681    0.21428800   -0.01932500
Ge   13.34952000    1.42293000    1.07439000      0.316881   -0.45260100    0.52224400
Ge   18.84152000    5.42566000    9.97530000      0.197439   -0.14779100   -0.43633800
Ge   18.03720000    7.51250000   18.07586000     -1.020543   -0.19002800    0.94480400
Ge   17.14239000   14.77585000   10.83585000     -0.038604   -0.09704700    0.33166500
Ge   17.41638000   10.62760000   18.07369000     -0.831623    0.25639100    0.02755900
Ge   12.87340000   14.38179000    9.17396000     -0.862367   -0.47372100   -0.44712300
Ge   17.44332000   15.37573000   17.44486000      0.085334    0.18643300    0.87565900
Ge   14.72045000    3.56391000   11.63734000     -0.089834    0.84303800   -0.20579700
Ge   18.58023000    2.44813000   17.99823000      0.123647    0.06329500    0.13944500
Ge    0.84835000    6.17422000    9.42811000     -1.340919    0.57616800    0.39840000
Ge   20.28987000    3.87625000    4.51036000      0.233171   -0.37479900    0.43278400
Ge   21.62713000   10.88163000    9.54587000      0.883681   -0.31394900   -0.20844500
Ge   20.30415000    9.11059000    0.01141000      0.037379   -0.36672200    0.25191500
Ge   20.25458000   14.43650000    6.95106000      0.506317   -0.44098200    1.98718500
Ge    5.37992000   14.75497000   17.12866000     -0.135748   -0.51098400   -0.21044600
Ge   17.75953000   22.00456000    6.80314000     -0.520287    1.04744200    0.60676500
Ge   22.24720000   19.69269000    4.78902000     -0.289524   -0.44756400    0.29899300
Ge    3.91555000    7.73988000    6.74840000      0.067618    0.07705200    1.09195100
Ge    1.40191000    7.62198000   18.87182000      0.772770   -0.41025600   -0.46816600
Ge   20.75023000   11.04174000    3.49164000      0.179087   -1.04337400   -0.19200400
Ge    4.38782000   12.15556000   14.15370000      1.054542    0.11676400    0.62479200
Ge    3.42888000   15.27519000    4.64948000      0.036375    0.22505700    0.78198100
Ge    1.14576000   20.68366000    1.07548000     -0.808454   -0.30534400   -0.65224400
Ge    2.94372000   18.33189000   10.74654000      0.955734   -0.59836900   -0.10714000
Ge    0.66976000    1.78530000   17.06970000     -0.777961   -0.41173200   -0.02992400
Ge   10.06257000    2.22618000    8.70980000      0.875268    1.17558400   -0.06671800
Ge    6.22701000    5.11882000   16.72811000      1.749629    1.17980000    0.02549600
Ge    8.45163000    7.82982000    4.69664000     -0.447360    1.89533900   -0.71608400
Ge   11.08129000    6.57548000   16.22554000     -1.319088    1.43306400   -0.88829700
Ge    6.77435000   16.28308000    9.48236000     -0.265927   -0.77854700    0.37067000
Ge   10.84915000   14.91179000   17.27812000      0.499761    0.61683300   -0.31728700
Ge   10.00363000   21.78133000    6.85179000      0.042219    1.18347100   -0.50861400
Ge   11.05158000    1.39298000   13.70586000      0.556558   -0.03691600    0.26560500
Ge   11.63102000    7.93975000    5.61242000      0.599039   -0.04269900    0.02313900
Ge   15.31436000    3.56498000   17.07614000      0.229692   -0.69976800   -1.27997300
Ge   15.56590000    8.71008000    6.56744000      1.391101    0.26921800   -0.07908800
Ge   15.41588000   13.18845000   15.55349000      0.116985   -2.33014300   -0.23834100
Ge   12.00880000   13.79426000    6.03970000     -0.109740    0.24189900    0.15390500
Ge   15.54755000   19.44190000   18.02346000     -0.113133    0.96090400   -0.30505500
Ge   13.89003000   20.98052000    8.11284000      0.261325    0.84247000    0.52681400
Ge   18.85227000   21.62811000   13.63589000     -0.846067    0.83390600   -0.40166100
Ge   22.07650000    4.23657000    8.25522000     -0.518628   -0.42886500   -0.50972000
Ge   20.81126000    5.86634000   14.34375000      0.265145   -0.35219400   -0.79050400
Ge   18.61425000   11.00889000    7.35803000     -0.056775   -1.11917600   -0.22886600
Ge   22.54303000   14.77816000   16.43441000     -0.362496   -0.48147800    0.80376300
Ge   17.34547000   16.14270000    6.16933000     -0.771092   -0.44615300   -1.31907100
Ge   16.84759000   18.42035000   15.46682000     -0.115824    0.23909300   -1.38099400
Ge   21.29513000   22.49123000    6.39813000     -0.551492    0.10159700    0.91064800
Ge   18.77802000   21.93066000   17.27316000     -0.279942   -0.24591400    0.02707100
Ge    6.35006000    0.52486000    7.39956000      0.544252    0.98028100   -0.42779900
Ge    3.46955000    2.52476000   12.60707000     -0.279289   -1.33828200   -0.96566000
Ge    0.11973000   10.82716000    5.16249000     -0.211202   -0.51969900    0.46039000
Ge    2.87960000    7.62343000   10.50722000     -0.187877   -0.29136100   -0.33802400
Ge    0.43708000   16.73178000    3.84696000     -1.072085    0.42683900    0.96314200
Ge    3.43850000   17.86706000   15.26235000      1.806279   -0.17746900    0.65607100
Ge    5.27271000   21.57351000    9.25048000     -1.358957    0.64076700    0.15579800
Ge    8.73626000   19.91229000   16.10552000     -1.077455    1.37037700   -0.60522100
Ge    5.23643000    5.21077000    1.37400000      0.081424   -0.54003000    0.85942200
Ge    9.70922000    3.55061000   17.82873000     -0.324277   -0.43212400   -0.81741700
Ge    7.08231000    4.60183000    5.29314000      0.059805   -0.17132300    0.51648800
Ge    8.80249000    9.63644000   13.26631000      0.039512   -0.03563000    0.19254900
Ge    5.28104000   14.41382000    2.91690000      0.204057   -0.38837600   -1.43085000
Ge   10.40638000   11.27913000   16.21300000     -0.538595   -0.12288800    0.45514700
Ge    7.09860000   20.95422000    4.09755000      0.960411   -0.20833800   -0.54570800
Ge    9.42324000   16.21809000   12.90990000      0.241899    0.13795200   -0.03682100
Ge   12.15778000    1.93487000    4.97001000      0.000607   -0.48770800    0.01616100
Ge   13.40605000    4.13882000   15.09587000      0.969551   -0.56590000    0.23583100
Ge   17.64047000    3.81857000    6.57243000      0.370011    0.21018200   -0.00101900
Ge   15.05763000    9.53368000   15.22223000     -0.078992    0.90419900   -0.27848800
Ge   14.74117000   13.29727000    3.26453000     -0.362192    0.38865400    0.07581500
Ge   13.47119000   15.43614000   12.43654000     -0.558885    0.54747500    0.16226800
Ge    9.66256000   18.47255000    4.64337000     -0.253511    0.11522400    0.63786700
Ge   12.32124000   20.24227000   16.03231000     -0.500790    0.49121700    0.06162700
Ge    0.98072000    6.23233000    6.01210000     -0.299871    0.49633100    0.06161500
Ge   22.25524000    3.92239000   12.16274000     -0.185417    0.10602300   -0.24999600
Ge   20.43430000    8.22873000    7.29838000     -0.519274   -0.53010000    0.20082800
Ge   17.16716000   11.81693000   12.08075000     -0.705344   -0.86561400   -0.00271700
Ge   21.30479000   16.92048000    0.71484000      0.029574   -0.56123700   -0.43191900
Ge   19.40462000   15.31547000   14.09717000     -0.081318   -1.05488600    0.78329500
Ge   18.71111000   20.56894000    4.81429000     -0.431893   -0.75796000   -0.04986200
Ge   21.92799000   20.16392000   12.71393000     -0.131284    1.31420600   -0.68287200
Ge    3.05482000    1.51157000    2.96390000      1.027242   -0.08641800   -0.13331700
Ge    5.85408000    1.37681000   12.02076000      0.448360   -0.62820200   -0.19332000
Ge    6.02397000    9.53334000    4.51660000     -0.091346    0.22953800   -0.95234400
Ge    6.93956000    4.79487000   12.65094000      0.089284    0.20094300   -0.15977800
Ge    5.09816000   11.90561000    0.19651000      1.113837    2.08210500    0.80794800
Ge    4.57183000    9.97844000   11.57173000      0.350018    0.82663800    0.21461900
Ge    2.57922000    0.31762000    8.51431000     -0.039109    0.40067500   -0.13969700
Ge    7.15728000   18.61883000   13.69046000      0.004616    1.35245700   -0.59602700
Ge    8.58083000    3.89952000    3.40996000      1.066727    0.40924100   -1.80970700
Ge    9.70424000    4.35647000   11.58365000      0.004013    0.00394000   -0.09677000
Ge   12.58096000    9.58409000    2.52428000     -0.364229   -0.51135100   -0.88537400
Ge   11.91387000    8.09935000   12.45218000      0.556107   -0.45376400    1.25027500
Ge    9.21741000   13.88443000    2.08165000     -0.132161    0.85171500    0.27116400
Ge    8.82408000   13.39408000   10.37082000     -0.416583    0.10677000   -0.22244100
Ge   10.61059000   21.37137000    1.75606000      0.062034    0.00930900   -0.17212300
Ge   11.71741000   19.20794000   12.32584000     -0.252786   -1.23493100    0.98188400
Ge    0.04612000   21.72231000   16.45978000     -1.222487    0.24325800   -0.00735800
Ge   13.89516000    0.90712000   10.09127000     -1.739121    0.25136500   -1.06873600
Ge   16.41109000    6.90282000    2.26939000     -0.339535    0.50129100    0.47709700
Ge   16.32460000    6.88411000   12.67980000     -0.323334    0.60855100   -1.20352300
Ge   18.18880000   12.68765000    1.25221000      0.122049    0.71871200   -0.36381600
Ge   15.29555000   16.60960000    7.90732000     -0.480010   -0.86931600    0.31737800
Ge   16.80846000   21.04286000    2.31424000     -0.484969    0.64344100   -0.76983900
Ge   16.44937000   20.37206000   11.21415000     -1.068246   -0.75682000    0.95814200
Ge   19.58713000    1.43538000    3.16285000     -0.735444    0.30565800   -0.10901000
Ge    0.41999000    1.37332000   10.83109000     -0.489892   -0.22522500    0.15046900
Ge   21.44869000    7.80359000    2.14221000     -0.095259    0.64850900    0.04403800
Ge    0.21860000    8.88446000   14.30642000     -0.867196   -1.42235300   -0.14857500
Ge   20.48918000   12.72676000   18.47139000      0.100583    1.14147800    0.98063900
Ge    0.09971000   15.59217000    9.99518000     -0.220063   -0.70018100   -0.53145400
Ge    3.90726000   21.39425000    5.61001000      0.414561   -1.75328900    0.68525900
Ge   19.01132000   18.19015000   11.84741000      1.263929   -0.43800900   -0.39437800
Se   20.28403000    0.55505000    0.81622000     -0.389880   -1.40381600    0.57376500
Se    0.10855000    0.81409000    8.38520000      1.283757    0.25922900    0.70637200
Se    4.61967000   11.66513000    4.11075000     -0.367558   -0.46293700   -1.03039900
Se    0.81236000    6.35181000   14.08472000     -0.366085    0.26891100    0.36551200
Se    0.04335000   12.44823000   17.44271000      1.114241    0.69378800   -0.24664800
Se    1.20407000   12.97863000    9.18879000     -0.307702   -0.18578900    0.30239700
Se    2.19078000   18.33442000    4.38629000     -0.085601   -0.24627100    0.49953900
Se    2.05556000   15.92369000   11.68534000      0.108373   -0.08668400   -0.64844300
Se    3.94513000    2.09768000    0.26236000     -0.144229   -0.07467900    0.24610600
Se    7.60599000    2.99152000   10.63893000     -0.725160    0.44153700   -0.18569500
Se    7.14623000    6.61875000    3.01449000     -0.250683   -0.10760200   -1.01918100
Se    9.64403000    7.48132000   11.77834000     -0.199834    0.06921800   -0.15231200
Se    7.66446000   10.27979000    1.17259000     -0.058502    0.43959600    0.40043400
Se    6.65400000   11.03449000   12.71969000      0.482513    0.28648300   -1.04277100
Se    4.67600000   20.67350000    3.40860000      0.004618   -0.66464400   -1.13481900
Se    9.17127000   18.44124000   11.16936000     -0.264066   -0.67772800    0.64370800
Se   11.01343000    2.56346000    0.94127000     -0.460767   -0.01561600    0.14659200
Se   13.80279000    2.01906000   13.48256000     -1.258454    0.01540100    0.71003200
Se   11.76499000    8.66726000   18.92704000     -0.316513   -0.46968900   -0.32391800
Se   10.08885000   11.29095000    9.36346000     -0.919473   -0.05429300    0.20619000
Se   13.03409000   15.10824000    2.89196000     -0.471914    0.39457100    0.70776400
Se   11.06282000   10.53728000    6.78178000      0.492902    0.30296300   -0.36264700
Se   14.38904000   18.87742000    1.14886000     -0.210902   -0.65189800    0.89135200
Se   13.34938000   16.73214000    9.62381000      1.062706    0.71891100    0.85113000
Se   18.23996000    3.50584000    1.55200000      0.257738    0.08321800    0.06325000
Se   16.99234000    1.70513000   13.50771000     -0.017635   -0.14303300    0.68835600
Se   15.46179000    6.82548000   18.45890000      0.201444   -0.01214000   -0.44930300
Se   18.00866000    5.02631000   12.29656000     -0.645774    0.67386700    0.88814100
Se   17.80967000    9.47895000    1.37093000      0.928501   -0.18970300   -0.18167900
Se   16.17419000   13.65612000    5.28622000     -0.113627    0.56732800    0.27771800
Se   20.50194000   19.65443000    0.99377000      1.405077    0.82906600   -1.31365800
Se   17.20451000   19.68658000    8.97289000      0.266823    0.08224700   -0.86564200
Se    0.80597000    0.60166000    2.70720000     -0.662451    0.57894100   -0.08672400
Se    6.77574000    6.96034000    9.25025000      0.095201   -0.56866000   -0.13650100
Se    7.51299000   11.36711000    3.35246000      0.114239   -0.44354200   -0.98135500
Se    5.27930000   10.49122000    9.26930000      0.130875    0.66487200    0.00202100
Se    3.53773000   13.76312000    0.67371000      0.584489    0.05490200    1.01526400
Se    2.99470000   11.85750000   12.25067000     -1.341600    0.76454100   -0.22551000
Se    2.32297000   22.22794000   18.30766000      0.553404   -0.46869800    0.20691600
Se    6.43498000   19.92215000   10.34979000      0.748325   -1.06364100    0.65147200
Se   12.95056000    5.77834000    4.67297000     -0.079460    0.64522400   -0.30811500
Se    7.68671000    3.47644000    7.39986000     -0.613587    0.04581200    0.16294800
Se   12.46649000   12.02808000    2.12320000     -0.219834   -0.04122800   -0.48115400
Se    7.59914000   10.50673000   10.21308000      0.030207    0.18567600    0.29987900
Se   10.12030000   16.38387000    1.80498000      0.261386   -0.18831800    0.46153100
Se   12.72253000   13.54993000   13.84805000     -0.317288   -0.13631900    0.18998700
Se    9.72772000   21.77012000   17.79994000     -0.079675   -0.93879100    0.42613000
Se    7.59768000   21.87844000   12.73720000     -0.886854    0.85433300    0.45946000
Se   14.99681000    5.05071000    1.07360000     -0.687325   -0.01835700    0.33173000
Se   16.55713000    6.21582000    9.18765000     -0.337661   -0.11097200   -0.08787100
Se   14.94177000   11.36519000    0.23823000      0.526300   -0.99439900    0.01170900
Se   15.02545000   11.59160000   13.52446000      0.096678    0.20720500    0.53161800
Se   18.61471000   15.52909000    1.07108000     -1.482505   -0.29841500   -0.24516700
Se   15.55382000   11.00990000    9.95125000      0.648357   -0.57891700    0.07163600
Se   16.30095000   22.01948000   18.83953000      0.495857   -0.51041300    0.43942300
Se   15.45070000   18.95718000    7.45634000      0.474224    0.69309700   -0.69093900
Se   21.99894000    4.24223000    2.64265000      0.642302   -0.90539900    0.23767800
Se   21.17634000    6.65748000   11.31880000      0.111693   -0.03915200   -0.41191800
Se   21.39938000    5.63087000    0.70892000     -2.044421   -0.43304000    0.12928100
Se   21.52969000   10.26123000   12.31578000     -0.815120    0.97151500   -0.05071600
Se   20.06132000   15.22957000   17.44890000      0.016606    0.10909500    0.48119600
Se   20.44766000   15.82414000   12.19711000      0.772995    0.79220800   -1.88873000
Se   20.64726000   21.82352000    4.12398000      0.213723   -0.32502200   -1.13543800
Se   18.46808000   21.43444000   10.73702000      1.223025    0.67413800    1.07931000
Se    2.91662000    5.79164000    8.27808000      1.338178   -0.03931200   -0.95932100
Se   21.28554000    2.44102000    0.00072000      0.150382    0.54173500   -0.59406200
Se    2.99064000    9.55066000    8.98350000     -0.600004   -0.15621500   -0.56509200
Se    0.49007000    9.52477000   17.61251000      0.142791   -0.00193300    0.01194200
Se    4.03919000   17.66529000    8.25103000     -0.356723    0.01849800    0.16081800
Se    1.08382000   17.97319000   15.16627000     -1.510168   -0.16411400   -0.24812300
Se    0.78129000   18.27550000   12.60305000     -0.453122   -0.57917600    0.22274000
Se    2.10434000   20.57345000   16.51607000      0.762649   -0.45482500    0.56359600
Se    2.77197000    4.43461000    5.27036000      0.390259   -0.37893300   -0.46307000
Se    5.62481000    6.88716000   18.48226000     -0.063448    0.52079000   -0.37795400
Se    6.41117000    9.08596000    6.83445000     -1.902039   -0.82545200    0.14860600
Se    3.45423000    7.20436000   17.46778000     -0.271066   -0.00056100   -0.02008300
Se    6.37493000   14.61291000   11.26415000      0.636302    0.00275400   -0.19167900
Se    6.18522000   17.74660000   18.23780000     -0.549004   -1.37785100    0.33746400
Se    9.08453000   19.56285000    7.01304000     -0.245485   -1.08313900    0.23535800
Se    5.89931000   19.68043000   17.10970000      0.446433    0.98122200   -0.51460100
Se   10.50564000    1.63982000   11.34982000      0.266121   -0.03121900   -0.37602800
Se   12.28713000    4.99656000   17.32341000      0.983268   -1.52733900    1.58750600
Se   13.47831000    7.94888000    7.41002000     -1.121304   -0.53391500    0.87578900
Se   14.02585000   11.14733000   16.70113000     -0.028435    0.51376900    0.09263000
Se   10.62619000   15.61914000    7.70480000      1.082688    0.31934000   -0.58075800
Se   14.83323000   16.23485000   18.14832000     -0.253975    0.02493200    0.03730800
Se   12.24501000    0.43741000    7.24080000     -0.688081   -0.20074000    0.35597800
Se   13.28307000   21.37630000   18.14784000     -0.559438    0.48538300    0.05040500
Se   13.42346000    3.55899000    9.49609000     -0.012039   -0.96381200    0.40939500
Se   21.82953000    3.53091000   15.79742000     -0.218393   -0.12676600   -0.16852000
Se   19.32261000   11.52477000   10.28732000     -0.037161   -1.55788700    0.68931800
Se   17.30735000    9.14235000   15.92010000     -0.123406    0.12466800    1.15853100
Se   13.81100000   16.07972000    5.99140000     -0.788516   -0.12155600   -0.54027000
Se   20.50690000   13.27959000   14.91016000      0.679808   -0.07883700   -0.34368200
Se   20.37615000   20.11719000    7.60270000     -1.368744    1.09105500   -0.45053600
Se   18.65594000   19.20347000    2.34912000     -1.466387   -0.14840100    0.22891200
Se    4.44249000    2.13125000    9.12726000     -0.281503   -0.20772000    0.09623300
Se    1.95186000    3.22796000   18.58208000      0.791435    0.56718200    0.50067600
Se    8.54055000    9.90639000    6.93228000      1.454332    0.79582900    0.18372100
Se    4.73737000    9.84391000    1.25561000     -0.294997   -1.33275900    0.74580000
Se    6.44942000   16.52751000    6.02475000      0.363744    0.25024600   -0.27827500
Se    4.13759000   10.59456000   17.47310000      0.159343   -1.58006100   -0.74793700
Se    0.77670000   19.02676000    9.72950000     -1.134657   -0.30472800    0.68967500
Se    1.25450000   18.13101000    1.19253000      0.324704    0.00956500   -0.10688000
Se    8.67893000    0.26877000    8.81772000     -0.848140   -1.94919600    0.41255100
Se    6.96143000    3.36121000    0.53062000      0.017664   -0.22181000    0.59954200
Se   10.64551000    5.24982000    9.37436000      0.502476   -0.72263500    0.33580500
Se    8.44441000    5.66227000   17.89483000     -0.068938    0.44590000    0.31929900
Se    8.79420000   12.63141000    5.37080000      0.087998    1.00261600    0.54596200
Se    8.69098000   13.74890000   17.11206000     -1.269659   -0.15851500    1.06697600
Se   11.74259000   20.43302000   10.18321000      0.691444    0.57457300   -0.64988400
Se   12.27304000   13.02063000   18.13630000      0.193662    0.91318300   -0.35717200
Se   15.76246000    0.43545000    7.80997000     -0.525236   -0.21064500   -0.31894100
Se   15.58544000    2.70008000    0.36614000      0.096316   -0.52410700    0.70406200
Se   16.97458000    3.58418000    8.92593000     -0.129273    0.79570700    0.45478200
Se   13.47894000    7.70728000   14.94902000      0.168252    0.12015500    0.07850300
Se   16.80262000    8.98964000    8.95402000     -0.322447    0.26747500   -0.10159100
Se   15.17699000   14.01273000    0.13558000      0.398648   -0.02747800    0.02986500
Se   12.23124000   18.40496000    5.10986000      0.878801   -0.63666100    0.19608800
Se   17.66348000   18.16578000   17.70525000      0.265683    0.14205100    1.15396800
Se   20.74001000    2.95207000   10.19583000      0.704855    0.29382900   -0.11286300
Se    0.24115000   22.34865000   13.71568000      0.317487   -1.28120300    0.27214000
Se   19.90381000    8.23435000    9.82025000     -0.146175    0.16041600    0.45023100
Se    0.17114000    5.71591000   17.84756000      1.160061    0.27032500   -0.97210900
Se   21.07284000   11.83442000    7.09631000      0.367724   -0.44067400   -0.50933200
Se   19.77384000   10.78216000   17.21239000     -0.082998   -0.43813000   -0.65754300
Se   19.19150000   16.94037000    7.45563000      0.721520   -0.29403400    0.65288800
Se   19.65742000   17.33886000   15.21686000     -0.166675   -0.53816000    1.16086400
Se    3.23531000   21.63904000   10.97176000     -0.075655    0.58786900   -0.24421100
Se    1.98148000    1.87540000   14.50318000      0.352401    0.46836800    0.46508300
Se    0.27672000    8.40688000    7.76976000      0.117528   -0.58065400    0.55235700
Se    1.93382000    9.90993000   15.41853000      0.106853    0.19411700    0.98719900
Se    3.23806000   15.32623000    7.50275000      0.480580    0.31728700    0.21479500
Se    3.35172000   12.49940000   16.51433000     -0.412546    1.77039700   -1.00104800
Se    0.64679000   16.20158000    7.45082000      0.208290    1.26792300    0.83081600
Se    2.78538000   20.43836000   13.21270000      0.370341    0.60392100    0.30491500
Se    5.81322000    0.16004000    2.52290000      0.270910    0.44191200   -0.63227000
Se    6.63048000   21.52847000    0.45062000      0.074272   -0.35743400    0.55293900
Se    9.43625000    6.26639000    6.10145000      0.926912   -0.82494000    0.61594900
Se    4.39065000    4.57860000   13.23558000      0.706055    0.91792800    1.08099000
Se    5.13915000   13.14020000    5.91534000     -0.390250    0.27269300   -0.26043000
Se    9.99275000   13.79108000   15.13505000      0.659455    0.16317600   -0.86007500
Se    7.11735000   17.62607000    3.92926000     -0.961066    0.12997600    0.25857900
Se    8.46502000   17.29702000   15.13684000     -0.202704   -1.46518200    0.20232700
Se   13.61102000   22.53758000    3.52421000     -0.682021    1.52112000   -0.39298800
Se   13.25321000    0.54146000   16.41123000      0.532255    0.10768600   -0.29743500
Se   14.34285000    9.67667000    4.22233000     -0.235514   -0.28897600    0.57762900
Se   11.68241000    5.13289000   13.80187000     -0.407868    0.89933600   -0.79851800
Se   13.96228000   11.80704000    5.43555000      0.582749    0.24662700   -0.18985800
Se   13.81107000   14.83640000   15.61008000     -0.677331    1.15953000   -0.18367900
Se   12.22057000   19.27279000    7.32146000     -0.370021   -0.25006400   -0.30169800
Se   12.12636000   19.15563000    0.52236000     -0.184851   -0.64201400    0.06816200
Se   18.98349000    1.66591000    6.89314000      0.881665   -1.03735600   -0.14124300
Se   20.18187000    1.30082000   15.99151000     -0.381442    0.10965600   -0.28073000
Se   20.00955000    5.52798000    7.64459000      0.476594   -0.06740400   -1.12331000
Se   19.53722000    6.83192000   16.28663000      0.750516    0.02685600   -0.70200400
Se   19.14088000   12.80037000    3.52421000      0.273185   -0.08496900    0.34113500
Se   17.30205000   14.62632000   13.30617000     -1.245516   -0.35752000    0.05733800
Se   16.67052000   18.01873000    4.21318000     -0.269537   -1.14952400   -0.48976700
Se   16.78517000   20.95195000   15.22974000      0.919760   -0.33522100    0.11645000
Se    2.22935000    8.40338000    5.12074000      0.171788   -0.22991100   -0.34316400
Se    3.64180000    7.48941000   13.64441000     -0.993695   -1.55375700   -0.65684700
Se    1.33386000   12.57382000    4.04120000      0.476647   -0.06058200   -0.68363100
Se    4.75895000    9.23052000   14.37272000      1.106946    1.97781000    1.00790300
Se    5.49115000   14.23645000    8.14807000     -0.054544    0.97463100    0.90661800
Se    3.71790000   16.50805000   17.76407000      0.168463    0.44842300   -0.61349000
Se    3.24648000   20.47626000    7.95903000     -0.232285    0.13102100   -0.00049600
Se    6.29688000    0.64301000   14.58350000     -0.019983   -0.22065700   -0.44987800
Se    8.61968000    0.95311000    5.59816000      0.198467   -0.84321900   -0.47274300
Se    7.56305000    2.04945000   17.52468000     -0.234584    0.40864600    0.51382100
Se   12.37697000   11.48440000    9.06975000      1.312488   -0.11225800    0.17251000
Se    9.27591000    9.11065000   17.39557000      0.426108    0.17001600    0.42559200
Se    8.48155000   14.88234000    8.07256000     -0.544481   -0.94396100    0.46094100
Se   11.59893000   16.88970000   13.94831000      0.476644    0.25038800   -0.85996600
Se   10.88246000   20.61758000    4.32851000     -0.090964    0.35016800   -0.55336800
Se   10.22220000   18.35329000   17.03771000      1.081714   -1.00875000    1.29785300
Se   10.22843000    3.46122000    5.21912000      0.050400   -0.24750300    1.23305200
Se   17.62881000    4.19654000   16.53151000      0.256244    0.28663800    0.08899200
Se   17.85293000    7.29813000    5.83316000     -0.768975    0.26480500   -0.16282900
Se   17.31306000    9.20004000   13.28611000      0.027235   -0.22822200   -1.15797200
Se   17.54018000   10.47433000    5.09967000      0.254751   -0.16590000    0.53357400
Se   14.15158000   18.54813000   15.92510000      0.681632   -0.88411800    0.69171600
Se   15.11998000    3.25099000    4.46112000      0.601036   -0.14375500    0.06784000
Se   18.86016000    2.83683000   12.65871000      0.187526   -0.76170400    0.10507100
Se    0.09842000    3.03312000    5.72922000     -0.990612    0.45045900    0.10819500
Se    1.89253000    4.14968000   15.44056000      0.296233    0.17636800   -0.25106600
Se   17.58585000   13.23827000    7.37622000     -0.178896    0.82079000    0.33197300
Se    0.03757000   13.09464000   13.54700000     -0.352047   -0.35077100   -0.15161900
Se   19.61505000   15.50814000    5.05666000     -0.669227    0.80498500   -2.17492800
Se   20.16770000   19.66090000   14.28125000      0.157106    0.32274900   -0.10570700
Se   20.94483000   17.51582000    9.69681000      0.518856    0.42729500   -0.08223400
Se   20.51893000   19.78285000   17.30440000     -0.219773    0.62937500    0.55222300
Se    3.58766000    1.08134000    5.73014000     -0.443038    1.29758600    0.33785700
Se    7.34161000    3.20108000   14.67721000     -0.050234   -0.24829500   -0.03582800
Se    1.44372000    7.30807000    2.34460000      0.383611    0.56264400   -0.79463300
Se    5.21327000    7.59014000   11.33179000      0.975526   -1.75782800   -0.21743900
Se    1.28723000   15.32111000    2.17683000      0.508481   -1.17396700   -1.04775900
Se    6.10193000   15.07893000   14.49710000      0.612873   -0.70532700    0.93213900
Se    4.74631000   17.73463000    3.27267000      0.016839   -0.68958800   -0.16986700
Se    5.25852000   18.23631000   11.93649000      0.108743   -1.08075700   -0.57182500
Se    9.60260000    1.24408000    2.31805000     -0.346364   -0.29752600    0.27146300
Se   10.35845000    0.98266000   16.50961000      0.290055    0.36818400   -0.38836600
Se   10.23607000    8.61547000    2.71465000     -0.669401    0.67256200    1.21078100
Se    7.49783000    6.43054000   14.85524000     -0.583021    0.66172700    0.32878000
Se   11.13940000   11.51192000    4.04476000     -0.539127    0.93051600    0.97705500
Se   10.51264000   11.40690000   12.54760000      0.003101   -0.11248400   -0.63811100
Se    8.32397000   20.00666000    1.49633000      0.099164    0.03026800   -0.29642800
Se   16.71063000   18.13611000   12.66630000     -0.908524    0.36637100   -0.11106900
Se   13.51759000    3.71350000    6.22372000      0.272327   -0.06413900    0.08781300
Se   15.84323000    1.01517000   16.19209000     -0.381419    0.78535800    0.24132900
Se   16.71337000    5.21303000    4.35367000     -0.336352    0.10309500    0.55198200
Se   12.84241000   10.47606000   11.40057000      0.072255    0.13181400   -0.19404700
Se   16.24539000   11.54029000    2.44378000     -0.189200   -0.38437100   -0.49337100
Se   17.59012000   12.82427000   16.34618000      0.146808    0.06635300    0.10419800
Se   16.09489000   16.44581000    2.38505000      1.099243    0.26648500    0.64864400
Se   14.55798000   21.75825000   12.29775000      0.092552   -0.61518600    0.19492400
Se    0.01345000   19.52712000    7.51036000      1.177386    0.16819800   -1.72323700
Se   20.83192000    1.12786000   13.43460000      0.077881    0.19928800    0.07673800
Se   21.36107000    6.27795000    4.06390000     -0.111532   -0.12660500    1.41822200
Se   20.15144000    8.53332000   14.30525000      0.561702   -0.22254700    0.34445400
Se    0.79312000   14.60458000    5.69252000     -0.099547   -0.96510000   -0.01002900
Se    1.69466000   14.31826000   14.76176000      0.140341    0.16163800   -0.67690300
Se   20.47414000   18.07394000    3.77242000      1.234136   -0.28774200    0.07966100
Se   21.32565000   21.05629000   10.51854000     -0.137295    0.01868400    0.84564900
Se    2.59678000    3.92116000    2.88169000      0.396834    0.58952700    0.45841300
Se    1.98839000    3.53635000   10.79498000     -0.814524    0.31999900    0.07171900
Se   22.03688000   10.33828000    1.40967000     -0.307863    1.30918700    0.12308800
Se    0.94336000    9.05551000   11.98630000      0.612343   -0.03926700   -0.29432300
Se    0.85546000   16.76757000   17.81632000     -0.565304    0.16508700   -0.13963600
Se    4.26864000   15.99588000   13.51519000     -0.788470    0.86984900   -0.40831200
Se    1.44056000   20.95052000    3.51379000      0.901433    0.18769500    0.06007000
Se    4.84258000   20.38065000   14.25267000      0.377013    0.64286700    0.65075800
Se    6.47738000    2.76661000    3.48509000     -0.971694   -0.04766000    0.53356200
Se    9.89555000    3.83433000   15.23823000     -0.153843   -0.47823000   -1.32683500
Se    5.01962000    5.86114000    5.21689000     -1.081427   -0.16037000   -0.12008100
Se    7.84655000   11.03214000   15.38449000      0.425094   -0.72843200    0.33988600
Se    7.19377000   14.35035000    0.80032000     -0.865916    0.08439200    0.41307400
Se   11.07613000   14.45216000   11.07571000      0.561484    0.33452600    0.00770700
Se    6.31350000   20.63304000    6.41942000     -0.867908    0.32921700    0.30847100
Se   10.30057000   20.34317000   13.91246000     -0.262209    1.03708100    0.23157400
Se   12.46536000    3.35241000    2.73703000      1.214929    0.15884300   -0.79317500
Se   14.05756000    7.07538000   10.94697000     -0.233398   -0.14375300    0.25917000
Se   13.63906000    7.07609000    2.49728000     -1.031008   -0.01161800    0.26517300
Se   11.51728000    9.70689000   14.59601000     -0.035841   -0.10598400   -0.37055100
Se    8.72441000   14.94011000    4.27955000     -0.073666   -1.67277000    0.49260600
Se   14.91824000   13.66575000   10.66500000      0.244376   -0.06622100    0.12319600
Se   14.71648000   20.57372000    3.60487000      0.359466   -1.28511700    0.13659200
Se   13.82694000   19.56858000   13.55262000      0.241059    0.67815800   -0.90311700
Se   18.57372000    5.90057000    1.75327000      0.840392   -0.26049100   -0.57212100
Se   15.43125000    6.13127000   14.78344000     -0.183599   -0.43995100    0.60000000
Se   19.49361000    8.60337000    4.06457000      0.486672    0.71456800    0.04866400
Se   19.04264000   13.62979000    9.58369000     -0.072078    1.57221900   -0.00496000
Se   21.62408000   14.25489000    1.53695000      0.340940    0.66207800    0.41714000
Se   17.63003000   16.93923000    9.87204000     -0.078135    0.37844300   -0.14886100
Se   17.08107000    0.40324000    3.84564000      1.325881    0.06847400   -0.13396400
Se   15.93599000    1.41955000   11.12798000      2.134967    0.14531000   -0.29467600
