384
22.54784000 22.54784000 18.93360000
Ge    5.73245000    4.23981000    8.70896000      0.727003    0.35613300    0.62956900
Ge    4.34785000    8.20762000    2.96884000     -0.087058   -1.03572000    0.77856800
Ge    2.07632000   12.20805000    6.68430000      0.134724    0.62827000    0.09799900
Ge    6.89015000    8.63349000   16.27931000      0.154133    0.05656400   -0.26166700
Ge    3.21010000   13.92215000   10.58038000      0.432812   -0.44484800   -0.36912300
Ge    8.58394000   17.58460000    0.24519000      0.044787    0.64176900   -0.65583000
Ge    6.54160000   18.48992000    8.03227000     -0.051553   -0.17389200   -0.71119300
Ge    4.55966000    3.55768000   15.83563000     -0.540715   -0.93369700   -0.80679000
Ge    9.40606000    7.18111000    8.54057000     -0.803510    0.64145600    0.78192500
Ge   11.06786000    6.71221000    1.64204000      0.921864   -1.05706600   -1.22578100
Ge   11.87887000    8.26337000    9.91149000      0.356794   -0.33152900   -1.37504600
Ge   10.35356000   12.29793000    0.34429000     -0.890786   -1.02002600    0.53661000
Ge   11.14776000   17.90649000    9.45148000     -1.075435    0.12659000   -0.87854500
Ge   12.47039000   16.00925000    0.76580000      0.020245    0.25001300   -0.84739900
Ge    9.35486000   21.31108000   10.97371000      0.180693    0.07054200    0.07294200
Ge   13.41645000    1.51024000    1.12024000     -0.074048   -0.83101600    0.22817300
Ge   18.86820000    5.43933000    9.95154000      0.110225   -0.09806100    0.05682300
Ge   18.11310000    7.49410000   18.10733000     -1.258984   -0.18999600    0.92210200
Ge   17.09248000   14.75800000   10.86240000      0.205678    0.36290200   -0.31502300
Ge   17.43618000   10.60096000   18.09314000     -0.676823    0.43162600   -0.65804100
Ge   12.86791000   14.41072000    9.10374000     -0.802519   -0.36586500   -0.17321300
Ge   17.43729000   15.37621000   17.35608000      0.244526    0.22838500    0.92110000
Ge   14.66337000    3.56157000   11.63184000     -0.136603    1.15296900   -0.18572900
Ge   18.59789000    2.41716000   17.95153000      0.020282    0.35525600    0.02860700
Ge    0.81321000    6.23555000    9.40852000     -1.151439    0.52654900    0.35630200
Ge   20.23204000    3.84918000    4.53048000      0.710430   -0.17212800    0.31872000
Ge   21.61609000   10.86411000    9.58328000      0.947447   -0.24897300   -0.25493500
Ge   20.37086000    9.07748000   18.92589000     -0.022656    0.01849000   -0.16713500
Ge   20.25235000   14.40476000    6.92003000      0.403589   -0.36506700    1.80453100
Ge    5.35914000   14.71508000   17.09028000     -0.229367   -0.25107200    0.06984400
Ge   17.76207000   21.95158000    6.74688000     -0.453993    1.18180500    0.74248800
Ge   22.22850000   19.76676000    4.86475000     -0.620467   -0.90593500    0.18401500
Ge    3.92799000    7.75059000    6.73572000      0.288545    0.02290100    1.03223400
Ge    1.40298000    7.61873000   18.83243000      0.813256    0.02430400   -0.68662100
Ge   20.82440000   11.01714000    3.41764000     -0.419155   -0.67990100    0.31669800
Ge    4.35404000   12.13584000   14.17624000      1.533792    0.04733900    0.78205800
Ge    3.41966000   15.24952000    4.67163000      0.117669    0.23682400    0.76834400
Ge    1.15417000   20.75506000    1.12067000     -0.744364   -0.59025700   -1.07151100
Ge    2.99202000   18.35313000   10.74162000      0.563121   -0.60280000   -0.13080200
Ge    0.66814000    1.77781000   17.03461000     -0.904980   -0.26953300   -0.05407200
Ge   10.05943000    2.16766000    8.73224000      1.134385    1.33168800   -0.26760400
Ge    6.27102000    5.10169000   16.74968000      1.468500    1.20672700   -0.02521800
Ge    8.46024000    7.84537000    4.70408000     -1.059146    2.39991800   -1.54050500
Ge   11.04932000    6.57429000   16.24003000     -1.380533    1.52758600   -0.92734400
Ge    6.78373000   16.36417000    9.46555000     -0.106228   -1.50362100    0.67578000
Ge   10.85895000   14.98561000   17.23512000      0.423092    0.38217300   -0.20433000
Ge    9.93707000   21.74835000    6.84265000      0.179529    1.59426800   -0.33148000
Ge   11.02740000    1.37531000   13.71979000      0.436476   -0.05940100    0.19293700
Ge   11.56431000    7.89438000    5.61784000      0.962540    0.11992400   -0.22831000
Ge   15.31871000    3.63169000   17.08339000      0.748865   -0.55525800   -1.18054100
Ge   15.59959000    8.67321000    6.63057000      1.343846    0.25996600   -0.22872800
Ge   15.41038000   13.14245000   15.57662000     -0.163041   -2.27714000   -0.19474200
Ge   12.04336000   13.81003000    6.09784000     -0.136757    0.50007100    0.25600500
Ge   15.55357000   19.42356000   18.00268000      0.155749    0.73710000   -0.10468600
Ge   13.87165000   20.99610000    8.07416000      0.274698    0.96003200    0.64851300
Ge   18.91192000   21.65215000   13.64318000     -0.942968    0.61778500   -0.38578000
Ge   22.04294000    4.29310000    8.30633000     -0.216289   -0.91349900   -0.34096500
Ge   20.86052000    5.92299000   14.35790000      0.030849   -0.75476200   -0.93405100
Ge   18.59358000   11.00357000    7.33604000      0.195353   -1.09725500    0.08666700
Ge    0.03726000   14.72508000   16.38841000     -1.095959    0.00747500    1.75906700
Ge   17.35070000   16.19028000    6.18110000     -1.424883   -0.72416700   -1.29521700
Ge   16.90192000   18.39082000   15.46593000      0.018725    0.35350800   -1.10587300
Ge   21.30717000   22.54225000    6.35321000     -0.555106    0.36352100    1.08726900
Ge   18.74057000   21.92540000   17.26193000     -0.286754   -0.25408600   -0.09944300
Ge    6.34802000    0.51224000    7.35448000      0.441791    0.84909100   -0.32860600
Ge    3.51535000    2.49200000   12.61615000     -0.575180   -1.33140500   -1.09427800
Ge    0.13643000   10.79274000    5.11148000     -0.012585   -0.04416400    0.57252400
Ge    2.84687000    7.57882000   10.45236000     -0.015579   -0.29043200   -0.17391300
Ge    0.44067000   16.73969000    3.82170000     -1.080151    1.15819100    1.51760400
Ge    3.46713000   17.85789000   15.25316000      2.134321   -0.04943900    0.87564200
Ge    5.30203000   21.56103000    9.32639000     -1.347790    1.10157200   -0.26780600
Ge    8.65482000   19.93005000   16.09505000     -0.595119    0.89321900   -0.40887300
Ge    5.20159000    5.24909000    1.35217000      0.073933   -0.56641500    0.94293400
Ge    9.71330000    3.54774000   17.81983000     -0.230686   -0.33395600   -0.89761300
Ge    7.09524000    4.55152000    5.24649000     -0.208202   -0.24675900    1.07830100
Ge    8.78413000    9.64382000   13.24947000      0.365496   -0.06273900    0.06399100
Ge    5.24028000   14.41795000    2.86993000      0.214940   -0.32088600   -1.51617500
Ge   10.33154000   11.26177000   16.25090000     -0.455872   -0.36324200    0.53293700
Ge    7.12043000   20.88600000    4.09992000      0.489708   -0.05085300   -0.40075300
Ge    9.47142000   16.15708000   12.93555000      0.007258    0.19286300   -0.04285900
Ge   12.16935000    1.96087000    4.93497000     -0.266534   -0.82859800    0.41862900
Ge   13.43736000    4.15751000   15.11887000      1.101412   -0.68531900    0.34063200
Ge   17.63947000    3.82008000    6.61352000      0.450016    0.16288600   -0.42599100
Ge   15.04375000    9.55525000   15.19254000      0.225900    0.76178800    0.29753300
Ge   14.69161000   13.29974000    3.22511000      0.161043   -0.02599800    0.05426800
Ge   13.45272000   15.47059000   12.46263000     -0.588990    0.15837400    0.40276200
Ge    9.66538000   18.47838000    4.64700000     -0.338410   -0.03112200    0.58920900
Ge   12.26986000   20.23170000   16.03030000     -0.598838    0.67046400    0.36212800
Ge    0.98254000    6.28553000    6.08218000     -0.147584    0.44497200   -0.15925600
Ge   22.28187000    3.89674000   12.19147000     -0.168144    0.08266100   -0.27588800
Ge   20.41956000    8.28020000    7.27242000     -0.350228   -0.55413100    0.42856100
Ge   17.20338000   11.84893000   12.05281000     -0.963429   -0.97563800    0.05443800
Ge   21.33887000   16.94890000    0.73260000      0.011075   -0.54967200   -0.34004200
Ge   19.38162000   15.30334000   14.05327000      0.463455   -0.82154300    1.09851300
Ge   18.72226000   20.49859000    4.79854000     -0.590488   -0.96656100    0.04701300
Ge   21.90435000   20.20892000   12.76962000      0.143457    0.83272300   -0.95612800
Ge    3.05477000    1.51776000    2.98091000      0.930401    0.26155800   -0.19633300
Ge    5.84932000    1.42324000   11.99630000      0.544110   -0.77575100   -0.28285900
Ge    6.05440000    9.57820000    4.49214000     -0.178451   -0.09016000   -0.69122200
Ge    6.92919000    4.77350000   12.66250000      0.146900    0.29337000   -0.14299800
Ge    5.12010000   11.91651000    0.12586000      1.051183    1.36746400    1.11845100
Ge    4.56142000   10.00864000   11.53520000      0.419223    0.64631000    0.30079700
Ge    2.57468000    0.30627000    8.53433000     -0.040807    0.45684500   -0.27957400
Ge    7.15852000   18.65107000   13.72725000      0.166950    1.19198800   -0.41576900
Ge    8.54320000    3.92624000    3.39241000      1.518684    0.30121800   -1.79689200
Ge    9.68792000    4.34888000   11.57464000      0.025718    0.01659200   -0.19927700
Ge   12.58706000    9.58006000    2.49422000     -0.077776   -0.20704700   -0.82947500
Ge   11.99295000    8.06114000   12.48857000      0.257408   -0.43195900    0.85415600
Ge    9.17882000   13.92305000    2.05327000      0.113648    0.89727000    0.18470400
Ge    8.90382000   13.38416000   10.34439000     -0.912269    0.22368700   -0.13503800
Ge   10.59836000   21.36128000    1.79422000     -0.094995    0.01569800   -0.32528000
Ge   11.68928000   19.19907000   12.31166000     -0.379122   -1.00141300    1.34639200
Ge    0.05563000   21.72063000   16.43450000     -0.630669   -0.03613000    0.03203700
Ge   13.86042000    0.89283000   10.11100000     -1.461962    0.31941400   -0.92967500
Ge   16.47875000    6.90867000    2.26545000     -1.189406    0.63957900    0.52408600
Ge   16.32076000    6.90686000   12.74414000      0.040706    0.66187200   -1.79979200
Ge   18.18340000   12.74057000    1.27401000      0.454512    0.80091300   -0.78329500
Ge   15.28657000   16.62650000    7.98376000     -0.337355   -0.59230100    0.03679300
Ge   16.79407000   21.11918000    2.27474000     -0.468135    0.11319500   -0.48777700
Ge   16.45643000   20.37413000   11.19694000     -0.734567   -0.61151600    0.85400800
Ge   19.56580000    1.47087000    3.15438000     -0.737687    0.18250300   -0.18035700
Ge    0.37900000    1.35276000   10.76325000     -0.458079   -0.11747700    0.46130700
Ge   21.40287000    7.79350000    2.13095000      0.066832    0.74604900    0.34699600
Ge    0.21713000    8.85518000   14.36672000     -0.599499   -1.29635000   -0.36926800
Ge   20.52235000   12.74539000   18.49194000     -0.199702    0.89918600    0.85351800
Ge    0.10126000   15.62384000   10.01460000     -0.047501   -0.65560800   -0.59874600
Ge    3.82986000   21.36409000    5.58683000      0.393213   -1.00869400    1.06608700
Ge   18.99616000   18.16818000   11.86981000      1.283089   -0.42801000   -0.48256400
Se   20.28383000    0.51826000    0.86386000     -0.056612   -0.46517400    0.21793700
Se    0.10248000    0.74732000    8.37938000      1.299875    0.26963500    0.42686700
Se    4.62881000   11.67884000    4.11519000     -0.404621   -0.45399800   -1.00637700
Se    0.81657000    6.30729000   14.06136000     -0.172411    0.50818400    0.36290800
Se    0.04023000   12.41773000   17.44116000      1.337182    0.76312200   -0.37080400
Se    1.21215000   12.99953000    9.20118000     -0.311718   -0.19048100    0.23748500
Se    2.25010000   18.34720000    4.41086000     -0.355572   -0.42653300    0.41352000
Se    2.07120000   15.91886000   11.68580000      0.088766    0.11781000   -0.54116900
Se    3.92255000    2.09586000    0.21843000     -0.267063   -0.01841200    0.23528500
Se    7.58802000    2.97057000   10.61513000     -0.727493    0.62293900   -0.14896200
Se    7.14338000    6.59884000    2.97621000     -0.200817   -0.12391500   -0.89509700
Se    9.63117000    7.51230000   11.82277000      0.077838    0.06409900   -0.20360700
Se    7.65801000   10.29669000    1.18315000     -0.051261    0.47123200    0.41866000
Se    6.69589000   11.00957000   12.69260000      0.254873    0.42327600   -1.22153600
Se    4.62082000   20.64073000    3.45876000      0.562635   -0.41708700   -1.43031700
Se    9.19194000   18.43516000   11.15433000     -0.345824   -0.74945800    0.87025800
Se   10.96712000    2.55929000    0.98627000     -0.396111   -0.11597200   -0.34849400
Se   13.82158000    2.05934000   13.48321000     -1.402286   -0.09684200    0.89417300
Se   11.70208000    8.69652000   18.93293000     -0.128815   -0.48939900   -0.29969000
Se   10.16864000   11.36145000    9.39040000     -2.027439   -0.35387900    0.15582300
Se   13.04601000   15.09489000    2.91816000     -0.635314    0.78457900    0.63564900
Se   10.98465000   10.56985000    6.72051000      0.665862    0.17888300   -0.43284000
Se   14.41984000   18.86692000    1.15369000     -0.249160   -0.71033900    0.85956400
Se   13.30588000   16.77891000    9.64265000      1.338908    0.29462500    1.01187900
Se   18.17497000    3.55675000    1.57042000      0.270128   -0.72383100    0.05362000
Se   16.97531000    1.68540000   13.53738000      0.171809   -0.15146200    0.57716900
Se   15.44424000    6.78627000   18.44729000      0.368001   -0.16186000   -0.20013800
Se   17.93542000    4.99717000   12.32327000     -0.509816    0.73806100    0.44494800
Se   17.82788000    9.49308000    1.29452000      1.004256   -0.52629500    0.46643500
Se   16.15169000   13.61884000    5.25828000     -0.115905    0.42867100    0.16431300
Se   20.47746000   19.67727000    1.01002000      1.782323    0.88191500   -1.37207900
Se   17.21705000   19.72239000    8.91700000      0.595223    0.06192500   -0.42385300
Se    0.79269000    0.57779000    2.70204000     -0.715222    0.81965600   -0.23224200
Se    6.73848000    6.97159000    9.26625000      0.217450   -0.54790400   -0.28425700
Se    7.50775000   11.35450000    3.38810000      0.266838   -0.32882400   -1.21018200
Se    5.26749000   10.45671000    9.26373000      0.425908    0.78613200   -0.17416900
Se    3.58400000   13.75073000    0.65923000      0.353898    0.12921500    1.05962700
Se    3.01616000   11.81374000   12.29189000     -1.860027    0.86221100   -0.58978400
Se    2.34764000   22.19639000   18.30031000      0.501109   -0.45624100    0.08934400
Se    6.45399000   19.86014000   10.34426000      0.697559   -0.93076700    0.74342200
Se   13.01867000    5.76662000    4.66119000     -0.340113    0.94086700   -0.28416500
Se    7.69324000    3.45411000    7.40667000     -0.657911    0.19988400   -0.09480600
Se   12.51049000   12.07365000    2.10717000     -0.563418   -0.42809000   -0.20040400
Se    7.61579000   10.48739000   10.24322000     -0.016273    0.23784800    0.20585000
Se   10.10535000   16.44810000    1.77123000      0.281178   -0.33918100    0.49704400
Se   12.75115000   13.48183000   13.92467000     -0.538351    0.07833800   -0.44431900
Se    9.72542000   21.75601000   17.78620000     -0.026903   -0.50595700    0.06349700
Se    7.58864000   21.91662000   12.75288000     -0.761900    0.66073900    0.41193700
Se   14.98929000    5.01149000    1.10801000     -0.654153    0.52931300    0.38145400
Se   16.52350000    6.17372000    9.24987000     -0.376968    0.00781000   -0.19705200
Se   14.93069000   11.39692000    0.26530000      0.666488   -1.09800700   -0.03881200
Se   15.00647000   11.49105000   13.56068000      0.326284    0.59338100    0.16509400
Se   18.62699000   15.49730000    1.04927000     -1.394480   -0.23486100   -0.26304500
Se   15.54549000   11.00011000    9.95973000      0.751675   -0.53732500    0.07735800
Se   16.27425000   21.94020000   18.78730000      0.462729   -0.26227100    0.34867800
Se   15.48616000   19.01741000    7.46177000      0.142522    0.14104600   -0.89756100
Se   22.02398000    4.29569000    2.57653000      0.351023   -0.98429800    0.75931800
Se   21.20739000    6.73152000   11.35341000     -0.020514   -0.14046500   -0.56205500
Se   21.36876000    5.66375000    0.72780000     -1.906416   -0.68936900   -0.42398000
Se   21.52700000   10.28546000   12.38288000     -0.302811    0.67824500   -0.27782800
Se   20.13751000   15.20088000   17.41571000     -0.467865    0.14286900    0.57766000
Se   20.43359000   15.78307000   12.15300000      0.726743    0.84797700   -1.82187400
Se   20.62044000   21.79519000    4.15960000      0.135277   -0.02201100   -1.58956800
Se   18.49376000   21.46666000   10.73848000      0.948355    0.52250800    1.19273000
Se    2.91896000    5.83551000    8.23605000      1.099158   -0.22423200   -0.64033500
Se   21.25847000    2.50006000   18.91479000     -0.308324   -0.25861600   -0.35176600
Se    3.01453000    9.51682000    8.98542000     -0.765708    0.03167000   -0.77267400
Se    0.41999000    9.54004000   17.61009000      0.285853   -0.29307500    0.01601300
Se    4.06168000   17.67589000    8.30845000     -0.374109   -0.05914100   -0.01286300
Se    1.14040000   17.96122000   15.17365000     -1.949415   -0.07937200   -0.29622100
Se    0.76184000   18.26925000   12.66106000     -0.470230   -0.22347000    0.03851300
Se    2.15398000   20.49872000   16.52892000      0.029854   -0.00871900    0.67059000
Se    2.72667000    4.43976000    5.30105000      0.472694   -0.34757200   -0.85214900
Se    5.63630000    6.93747000   18.50412000     -0.118261    0.39254400   -0.68504800
Se    6.42762000    9.10755000    6.82617000     -2.695250   -1.08080300    0.00276100
Se    3.46124000    7.17004000   17.44898000     -0.326906    0.00255400    0.04024800
Se    6.42951000   14.63767000   11.26725000      0.643088    0.17340800   -0.29427800
Se    6.13207000   17.72315000   18.24033000     -0.623905   -0.88664200    0.00453200
Se    9.09758000   19.53491000    7.05020000     -0.170609   -1.23685500    0.20757300
Se    5.88562000   19.69153000   17.04916000      0.381024    0.42959800   -0.12037800
Se   10.48039000    1.65973000   11.30214000      0.425106   -0.08128900    0.03104400
Se   12.29655000    5.02676000   17.30680000      1.100321   -1.55067000    1.77704300
Se   13.46443000    7.95915000    7.38023000     -1.150759   -0.49690300    0.96421300
Se   14.03888000   11.18415000   16.74250000     -0.038812    0.14245200   -0.21285500
Se   10.61997000   15.60950000    7.74043000      1.718491    0.60129900   -0.78356300
Se   14.79584000   16.23206000   18.12319000     -0.101765    0.08207900    0.06085800
Se   12.17386000    0.45332000    7.28828000     -0.680945   -0.24827000    0.21739700
Se   13.24738000   21.36751000   18.17717000     -0.587404    0.54229900   -0.30265800
Se   13.45117000    3.56202000    9.44820000     -0.105880   -0.94226100    0.43041100
Se   21.82186000    3.51325000   15.75009000     -0.264723   -0.16753600   -0.10430400
Se   19.31959000   11.54543000   10.29181000      0.014745   -2.22766500    1.04731900
Se   17.34042000    9.12605000   15.87672000     -0.526788    0.23877400    1.24141300
Se   13.78605000   16.07795000    6.01707000     -0.600108   -0.18925800   -0.34790500
Se   20.50010000   13.24858000   14.88437000      0.549345   -0.03442300   -0.37564700
Se   20.31826000   20.06172000    7.61101000     -0.516854    0.91427700   -0.50940100
Se   18.65085000   19.20841000    2.31304000     -1.843782   -0.16461500    0.56278100
Se    4.39730000    2.09627000    9.17096000     -0.153993   -0.12067700    0.05324600
Se    1.88975000    3.21317000   18.57456000      1.066521    0.46159400    0.66699900
Se    8.51739000    9.87601000    6.95906000      2.115407    1.06919900    0.32267900
Se    4.73068000    9.81056000    1.31632000     -0.162278   -0.18890500   -0.09985500
Se    6.45023000   16.53111000    6.05978000      0.386263    0.23030400   -0.39561900
Se    4.11583000   10.54757000   17.46968000     -0.046169   -1.16376800   -0.75686700
Se    0.80313000   18.98015000    9.72587000     -1.116744   -0.22455100    0.69180200
Se    1.30831000   18.10897000    1.21413000      0.016810    0.22771400   -0.13967000
Se    8.64334000    0.26276000    8.86462000     -1.030867   -2.05091300   -0.03590700
Se    6.95812000    3.37749000    0.56187000      0.009399   -0.10647600    0.51626700
Se   10.66112000    5.24552000    9.37896000      0.281485   -0.40686200    0.25403200
Se    8.39970000    5.66036000   17.93345000      0.307258    0.36117900    0.44234600
Se    8.82079000   12.62880000    5.37711000      0.147868    1.12743500    0.50736700
Se    8.71228000   13.72909000   17.12036000     -1.772564   -0.03126800    1.75639700
Se   11.72641000   20.41288000   10.20251000      0.633504    0.88568700   -0.87953100
Se   12.24153000   13.02091000   18.09193000      0.292811    1.15939300   -0.45173200
Se   15.78535000    0.41953000    7.83482000     -0.504834   -0.27702800   -0.37696700
Se   15.57876000    2.71223000    0.37970000      0.320144   -0.49015400    0.40023900
Se   16.96276000    3.63766000    8.92300000     -0.194881    0.58054400    0.72500400
Se   13.47662000    7.71535000   14.89107000      0.267289    0.09379900    0.22739900
Se   16.77407000    8.98569000    8.98536000     -0.300528    0.26964700   -0.09895000
Se   15.16422000   13.96783000    0.09751000      0.413019    0.20695300    0.01558500
Se   12.25574000   18.45931000    5.06511000      0.788884   -0.79742600    0.02129500
Se   17.72742000   18.11356000   17.74303000     -0.160632    0.43888000    0.93311700
Se   20.70391000    2.99384000   10.19271000      0.900933    0.22794800   -0.00577300
Se    0.27352000   22.37917000   13.68507000      0.351634   -1.26012100    0.38534100
Se   19.85915000    8.22817000    9.82501000      0.006139    0.08040800    0.37944700
Se    0.20880000    5.70952000   17.88068000      0.844463    0.06732500   -0.86461600
Se   21.05526000   11.83457000    7.08430000      0.554997   -0.68390000   -0.54989700
Se   19.77500000   10.78267000   17.17709000     -0.104720   -0.30647400   -0.21699100
Se   19.23626000   16.90533000    7.38130000      1.004509   -0.05720000    0.70918900
Se   19.69762000   17.29381000   15.27631000     -0.161697   -0.66899200    0.93157700
Se    3.22072000   21.69116000   10.97639000     -0.049639    0.53338300   -0.16521400
Se    1.98348000    1.86280000   14.46807000      0.509793    0.35400500    0.56472300
Se    0.32052000    8.40227000    7.74863000     -0.303398   -0.43727000    0.67902900
Se    1.92844000    9.93410000   15.43233000      0.111897    0.27796700    0.91755700
Se    3.26075000   15.31229000    7.49767000      0.314846    0.23196700    0.24020600
Se    3.39104000   12.53310000   16.49330000     -0.441912    1.26051000   -0.55830500
Se    0.63994000   16.21217000    7.48202000      0.263937    0.75513600    0.47688100
Se    2.81583000   20.48247000   13.17644000     -0.171584    0.55355100    0.06404500
Se    5.84937000    0.15969000    2.49131000      0.200135   -0.00024200   -0.60185300
Se    6.58919000   21.55242000    0.42594000      0.175355   -0.31572000    0.69365000
Se    9.41386000    6.34925000    6.09637000      1.095657   -1.82820600    1.17805500
Se    4.38127000    4.56119000   13.22287000      0.828674    1.13153500    1.13560700
Se    5.16491000   13.10263000    5.95330000     -0.405890    0.27652100   -0.21148700
Se    9.95541000   13.74150000   15.20935000      1.063574    0.28662300   -1.90199700
Se    7.11473000   17.58846000    3.89643000     -1.002490    0.14494100    0.43681300
Se    8.44783000   17.27148000   15.16370000     -0.243019   -1.29730300    0.00073400
Se   13.65283000   22.51514000    3.49857000     -0.927874    1.83392200   -0.26978300
Se   13.26011000    0.58798000   16.35926000      0.505154   -0.17977200    0.01057700
Se   14.37312000    9.70155000    4.21085000     -0.239002   -0.34759900    0.41086900
Se   11.72997000    5.09430000   13.81450000     -0.630332    1.13575200   -1.12442900
Se   13.93078000   11.77828000    5.39902000      0.685865    0.40032800   -0.06200800
Se   13.83026000   14.82041000   15.56924000     -0.550174    1.37976200    0.05381600
Se   12.25852000   19.23015000    7.27768000     -0.379246   -0.05965600   -0.13610900
Se   12.15034000   19.13171000    0.53308000     -0.133966   -0.49762800    0.02290700
Se   18.97414000    1.65823000    6.91995000      0.803327   -1.08578000   -0.21747700
Se   20.12155000    1.31694000   15.96967000     -0.173758   -0.04669600   -0.14677700
Se   20.02177000    5.44856000    7.61175000      0.118072    0.38194400   -1.20916100
Se   19.59779000    6.87953000   16.27157000      0.732543   -0.05334100   -0.52890800
Se   19.17311000   12.78075000    3.52257000      0.387713   -0.25932500    0.35251600
Se   17.29498000   14.65488000   13.27546000     -1.555515   -0.44545500    0.37848900
Se   16.63763000   18.01151000    4.21688000     -0.186032   -1.21898500   -0.53282900
Se   16.79926000   20.95872000   15.17552000      1.048433   -0.57370600    0.27153000
Se    2.27698000    8.42219000    5.11704000      0.003059   -0.18294500   -0.45615200
Se    3.70278000    7.52308000   13.64364000     -1.435365   -2.04380300   -0.78043800
Se    1.36695000   12.63054000    3.98589000      0.388121   -0.43591800   -0.59277200
Se    4.82810000    9.22916000   14.32924000      1.355211    2.36002800    1.32568500
Se    5.50577000   14.22275000    8.18426000     -0.067276    1.03760200    0.86383500
Se    3.69366000   16.51577000   17.85162000      0.368491    0.35706300   -0.88313600
Se    3.23786000   20.48106000    8.00753000     -0.075630    0.09228000   -0.02054600
Se    6.31379000    0.66314000   14.54473000     -0.068026   -0.11780700   -0.20732700
Se    8.57930000    0.92512000    5.55125000      0.105336   -0.86445000   -0.33996500
Se    7.56698000    2.11640000   17.53461000     -0.317999    0.17203800    0.41498700
Se   12.36875000   11.46975000    9.09631000      2.353930   -0.04644400   -0.17389000
Se    9.25790000    9.05060000   17.39799000      0.541468    0.12029200    0.51344100
Se    8.52987000   14.87293000    8.06018000     -1.386819   -1.07946200    0.70854900
Se   11.61710000   16.91403000   13.94997000      0.498822    0.05140400   -0.70395400
Se   10.86198000   20.62525000    4.30415000     -0.042393    0.46835600   -0.31252700
Se   10.24839000   18.38234000   17.03806000      0.681711   -0.51772900    1.00007000
Se   10.22599000    3.43362000    5.28322000     -0.040360   -0.23443500    0.82034300
Se   17.70523000    4.25975000   16.47439000     -0.129040   -0.10341200    0.47044900
Se   17.83935000    7.27799000    5.85559000     -0.816961    0.21059000   -0.05991000
Se   17.29940000    9.22340000   13.30147000      0.189154   -0.30897700   -1.34426400
Se   17.55202000   10.48195000    5.15911000      0.107979   -0.21589000    0.09573800
Se   14.17292000   18.64691000   15.91756000      0.754054   -1.04914200    0.62354200
Se   15.08538000    3.27279000    4.46773000      0.556193   -0.21015100    0.10714200
Se   18.86606000    2.83389000   12.71930000      0.023769   -0.59851100    0.09947700
Se    0.07508000    2.99447000    5.72120000     -1.019288    0.45200600    0.06413000
Se    1.91454000    4.12504000   15.38505000      0.222558    0.30151000   -0.05450100
Se   17.56434000   13.22183000    7.41442000     -0.339323    0.92087300    0.06008600
Se    0.05595000   13.08060000   13.58455000     -0.538623   -0.55714300   -0.43580900
Se   19.57014000   15.52298000    5.03994000     -0.581824    0.62292000   -1.96555800
Se   20.20395000   19.63495000   14.34067000     -0.112731    0.47183100   -0.02251300
Se   20.91515000   17.47505000    9.70447000      0.536993    0.63248800   -0.04970200
Se   20.50453000   19.81725000   17.33275000     -0.238001    0.57570200    0.45742100
Se    3.61117000    1.12008000    5.71855000     -0.292435    0.59191900    0.34089000
Se    7.40746000    3.17047000   14.63881000     -0.248534   -0.25595300    0.02387700
Se    1.42346000    7.34755000    2.25322000      0.424026    0.48022300   -0.35681500
Se    5.17564000    7.62162000   11.28869000      0.982605   -1.89630400   -0.06720000
Se    1.29249000   15.35374000    2.22095000      0.843146   -1.48746400   -1.64989500
Se    6.11354000   15.02551000   14.50152000      0.709397   -0.72890900    0.83264600
Se    4.73067000   17.68027000    3.25505000      0.161110   -0.71210600   -0.16998100
Se    5.23804000   18.26095000   11.93261000      0.478833   -1.15795600   -0.30315000
Se    9.54945000    1.26385000    2.29632000     -0.447808   -0.64486900    0.34208400
Se   10.36912000    1.01565000   16.48123000      0.172357   -0.02645000   -0.06433800
Se   10.25695000    8.62319000    2.70551000     -0.960377    0.95186100    1.57814900
Se    7.50907000    6.42372000   14.88149000     -0.544654    0.65715000    0.13773500
Se   11.11994000   11.52074000    4.07193000     -0.315604    0.99204000    0.67119400
Se   10.59966000   11.43232000   12.51463000     -0.124127   -0.29102100   -0.47767000
Se    8.25305000   19.97629000    1.57029000      0.231763    0.07583700   -0.53123800
Se   16.69751000   18.11630000   12.67654000     -0.906473    0.49283300   -0.05498000
Se   13.46205000    3.67348000    6.25400000      0.426965    0.00819400    0.13775900
Se   15.87016000    1.01257000   16.21838000     -0.407865    0.88863000    0.30612500
Se   16.68439000    5.23221000    4.37642000     -0.350625    0.20312300    0.63058600
Se   12.80160000   10.50339000   11.43140000      0.082883   -0.01074900    0.02125300
Se   16.30971000   11.52543000    2.39627000     -0.581133   -0.24471800   -0.01436100
Se   17.56786000   12.84200000   16.33220000      0.600114   -0.04107000    0.11381100
Se   16.11930000   16.41530000    2.38481000      1.064361    0.30762100    0.69344100
Se   14.58043000   21.71422000   12.31832000     -0.015487   -0.37818600    0.20727000
Se    0.03711000   19.51493000    7.50590000      0.387556    0.35238400   -1.33390700
Se   20.86003000    1.14381000   13.42114000      0.098944    0.30693400   -0.15162600
Se   21.36076000    6.32333000    4.09396000     -0.046758   -0.26519000    1.16443700
Se   20.19370000    8.52673000   14.33489000      0.356766    0.05603900    0.37254700
Se    0.87964000   14.56569000    5.61548000     -0.313392   -0.57677100    0.60778700
Se    1.67558000   14.32565000   14.81157000      0.975723    0.21365800   -1.28530100
Se   20.45329000   18.02498000    3.75448000      1.393350    0.04957500    0.05843700
Se   21.33466000   21.08060000   10.54025000     -0.095036   -0.05280500    0.86432300
Se    2.62566000    3.99313000    2.84112000      0.341726    0.09676700    0.81031400
Se    1.99609000    3.56353000   10.84331000     -0.853198    0.13700400   -0.01723000
Se   22.04808000   10.37976000    1.41872000     -0.178649    1.07945600   -0.29366400
Se    0.95172000    9.00222000   12.01765000      0.198960    0.33215300   -0.12799600
Se    0.83069000   16.77119000   17.77652000     -0.448576   -0.08786300   -0.07499200
Se    4.31680000   16.01467000   13.55649000     -0.988135    0.84194700   -0.68264300
Se    1.37895000   20.93962000    3.53358000      1.303568    0.05015800    0.47983400
Se    4.80333000   20.42359000   14.26006000      0.786731    0.44460900    0.75066500
Se    6.48509000    2.68735000    3.44011000     -1.004940    0.07367800    0.57674100
Se    9.94284000    3.83502000   15.15251000     -0.247939   -0.51622600   -1.05967900
Se    5.06522000    5.84149000    5.20590000     -1.270984   -0.12168200   -0.12641000
Se    7.83706000   10.97455000   15.34600000      0.271580   -0.35771700    0.44625000
Se    7.17629000   14.36152000    0.77463000     -0.993285    0.14467500    0.41570300
Se   11.01356000   14.45385000   11.08737000      0.903982    0.52420100   -0.01338800
Se    6.33399000   20.60457000    6.45285000     -1.121409    0.42702100    0.23477400
Se   10.29226000   20.39493000   13.94644000     -0.021782    0.89937800   -0.01021300
Se   12.43604000    3.27234000    2.73454000      1.446969    0.79920000   -0.60685900
Se   14.11391000    7.09426000   10.99726000     -0.249653   -0.19740400    0.21762600
Se   13.62448000    7.03563000    2.51305000     -0.913988    0.03450700    0.16401800
Se   11.49147000    9.71642000   14.59458000      0.050060   -0.07260500   -0.32131300
Se    8.72671000   14.96393000    4.25646000     -0.033613   -1.65578300    0.56005400
Se   14.93121000   13.63110000   10.69741000     -0.068640    0.10792800   -0.01442200
Se   14.65511000   20.53423000    3.61474000      0.934417   -1.42677300   -0.14937500
Se   13.81568000   19.59017000   13.54121000      0.105397    0.50301300   -1.13244200
Se   18.55359000    5.85346000    1.78425000      1.405080    0.19064300   -0.58044800
Se   15.46146000    6.09713000   14.74649000     -0.514065   -0.46724000    1.20198100
Se   19.53884000    8.64377000    4.06070000      0.501084    0.79178900    0.02410000
Se   18.97127000   13.59050000    9.56820000     -0.031721    2.36384800   -0.16761200
Se   21.60710000   14.24952000    1.61090000      0.285247    0.63862200    0.24843800
Se   17.62092000   16.97472000    9.87256000     -0.125413   -0.03794200   -0.11863300
Se   17.06495000    0.40608000    3.85904000      1.237736    0.24385400   -0.09150200
Se   15.91185000    1.48012000   11.16469000      1.995008   -0.06563000   -0.48052700
