384
22.54784000 22.54784000 18.93360000
Ge    5.80073000    4.20905000    8.73835000      0.056319    0.32558800    0.71198900
Ge    4.40781000    8.16017000    3.05790000     -0.026478   -1.62877000    1.02577300
Ge    2.12891000   12.39202000    6.56767000      0.328094   -0.01767900    0.57450600
Ge    6.85303000    8.66563000   16.16223000     -0.215646   -0.50238700    0.37854500
Ge    3.21545000   13.91087000   10.56735000      0.410478   -0.50104900   -0.23146500
Ge    8.50796000   17.74397000    0.14934000      0.294983    0.36318100   -0.24222900
Ge    6.42467000   18.42932000    7.95995000      0.513246    0.31173300   -0.97439100
Ge    4.49768000    3.60487000   15.73703000      0.234591   -0.42693000   -0.28678200
Ge    9.34895000    7.34693000    8.59829000     -0.304031   -0.03131500    0.71779800
Ge   11.05382000    6.68808000    1.64181000      0.225361   -0.17898800   -0.78210800
Ge   11.84574000    8.16878000    9.78109000      0.247300   -0.47706000   -0.92087700
Ge   10.37903000   12.27673000    0.44232000     -0.391721   -0.47448400    0.23029000
Ge   11.13615000   18.14438000    9.54254000     -0.934847   -0.39830600   -1.40072800
Ge   12.51531000   15.85086000    0.70572000      0.061491   -0.13740400   -0.34728000
Ge    9.08134000   21.33173000   10.79573000      1.008411   -0.98198500    1.16150600
Ge   13.59619000    1.67570000    1.25780000     -0.667852   -2.34835300   -0.92833900
Ge   18.94973000    5.47455000    9.89970000     -0.375047   -0.07044400    0.50725700
Ge   18.23616000    7.41811000   18.26045000     -1.254166   -0.41873800    0.13441100
Ge   16.96120000   14.75569000   10.89532000      0.327413    1.30730400   -0.96076000
Ge   17.44663000   10.56817000   18.06574000     -0.434242    0.83638900   -1.67029600
Ge   12.79720000   14.47861000    8.89568000     -0.129527    0.07934600    0.85282500
Ge   17.44077000   15.39658000   17.16791000      0.169248    0.28424600    0.94323000
Ge   14.48431000    3.64132000   11.60320000      0.123250    0.59579400    0.07192500
Ge   18.64807000    2.36178000   17.81467000     -0.183814    0.77955000    0.19043500
Ge    0.62238000    6.45143000    9.37976000     -0.901098   -0.22162500    0.60007900
Ge   20.12530000    3.76219000    4.61403000      1.102694    0.15347500    0.24467000
Ge   21.65460000   10.79400000    9.67942000      0.584881   -0.07184700   -0.01898700
Ge   20.56993000    8.99418000   18.84266000     -0.353130    0.62204100   -0.55100400
Ge   20.26464000   14.29732000    6.93699000     -0.338562    0.50132800    0.03233600
Ge    5.28140000   14.58223000   16.99268000      0.106669    0.14498500    0.55789600
Ge   17.72803000   21.88715000    6.63863000     -0.248379    0.83103500    0.57080200
Ge   22.11959000   19.91075000    5.09275000     -0.696974   -0.77225800   -0.83716900
Ge    4.00056000    7.78586000    6.77415000      0.581853    0.27186100    0.37525300
Ge    1.46639000    7.62354000   18.65281000      0.281910    0.64137800   -0.86116900
Ge   20.98113000   10.91164000    3.26406000     -1.751594    0.38442100    2.28614300
Ge    4.38499000   12.07560000   14.28671000      1.691818   -0.10249800   -0.48206000
Ge    3.41656000   15.19106000    4.79199000      1.084597    0.34613700    0.25409800
Ge    1.12396000   20.92167000    1.16618000     -0.536340   -0.43467700   -0.89708000
Ge    3.14981000   18.37276000   10.71238000     -1.037506   -0.31752600   -0.22545400
Ge    0.59240000    1.74380000   16.92959000     -0.744239    0.35937000    0.35983800
Ge   10.12956000    2.08854000    8.76930000      0.393303    0.59402900   -0.68613200
Ge    6.47640000    5.13139000   16.79833000     -0.910449    0.15132300   -0.71987500
Ge    8.39985000    8.06630000    4.61598000     -0.590919    0.58419500   -0.21756200
Ge   10.86026000    6.66569000   16.22330000     -0.205628    0.03259300   -0.08065600
Ge    6.80828000   16.46341000    9.47505000      0.239994   -1.99189400    0.75524500
Ge   10.90952000   15.21424000   17.09143000     -0.254239   -0.76132200   -0.23195100
Ge    9.75188000   21.76192000    6.79437000      0.198490    0.38865000    0.12422500
Ge   10.98896000    1.31958000   13.77567000      0.409861   -0.04212000   -0.03008700
Ge   11.45304000    7.77358000    5.60910000      1.371805    0.36587200   -0.48091000
Ge   15.40688000    3.78895000   17.02452000      1.569561   -0.41038900   -0.22228700
Ge   15.78721000    8.58302000    6.79622000      0.135911    0.27494300   -0.63348900
Ge   15.35977000   12.86026000   15.63216000     -0.442954    0.23702200   -0.37430100
Ge   12.13928000   13.90231000    6.29029000     -0.006283    0.67875100   -0.08032000
Ge   15.59052000   19.40443000   17.94842000      0.388131   -0.69923100    0.66562000
Ge   13.83495000   21.11271000    8.00862000      0.104023    0.36492700    0.54439600
Ge   19.02158000   21.75975000   13.63690000     -0.633858    0.05084100   -0.19478300
Ge   21.94643000    4.37810000    8.43327000      0.887089   -1.31343200   -0.39308500
Ge   21.00051000    6.01376000   14.32006000     -0.882214   -1.62724700   -1.00717700
Ge   18.55928000   10.91853000    7.30513000      0.812035   -0.10764800    1.51382200
Ge    0.05579000   14.57811000   16.42206000     -0.617232    0.56650300    1.73905800
Ge   17.25946000   16.28087000    6.12717000     -0.579253   -0.64821400   -0.27287900
Ge   17.06513000   18.33211000   15.38943000      0.030652    0.40744100   -0.43212000
Ge   21.29494000    0.18826000    6.29723000     -0.753919    0.92907900    0.22790000
Ge   18.60787000   21.89231000   17.21665000     -0.169159   -0.06438100   -0.38123500
Ge    6.37159000    0.53311000    7.19498000      0.088450    0.44130300   -0.28530800
Ge    3.59769000    2.31318000   12.55801000     -0.905667    0.23606400   -0.90914200
Ge    0.19161000   10.69963000    5.01366000      0.235244    0.58503000    0.83919200
Ge    2.76094000    7.42950000   10.28618000      0.610146   -0.08811700    0.38057100
Ge    0.37784000   16.86144000    3.86458000      0.050603    0.72822800    0.67652200
Ge    3.70073000   17.83613000   15.30630000      0.384960    0.48211600    1.28839200
Ge    5.30177000   21.60081000    9.53268000     -0.200034    0.40186700   -0.25766800
Ge    8.39023000   20.03350000   16.04021000      0.712823   -0.14514200    0.11717300
Ge    5.10823000    5.32467000    1.35394000      0.290214   -0.10094800    0.55306800
Ge    9.71540000    3.52381000   17.72636000      0.359902    0.12960800   -0.60554100
Ge    7.10781000    4.38508000    5.20174000     -0.239294   -0.06773500    0.81252600
Ge    8.77557000    9.65709000   13.19832000      1.415131   -0.34922200   -0.16592100
Ge    5.13772000   14.41173000    2.62059000      0.404920    0.12902300   -0.35012500
Ge   10.08297000   11.17136000   16.40286000      0.206065   -0.51118900    0.40431800
Ge    7.20484000   20.67911000    4.08536000     -0.522381    0.01061500    0.30374300
Ge    9.60694000   15.99042000   13.01067000     -0.741804    0.24522000   -0.03869600
Ge   12.17611000    1.96460000    4.88084000     -0.621239   -1.08376900    1.07033500
Ge   13.60250000    4.15961000   15.20902000     -0.209255   -0.21731000   -0.11502600
Ge   17.67758000    3.83828000    6.69025000      0.612611    0.12564100   -0.84553200
Ge   15.02945000    9.63824000   15.17054000      0.534313   -1.36873900    2.62044100
Ge   14.58038000   13.29339000    3.11408000      1.015581   -0.11670600    0.21611700
Ge   13.35815000   15.57047000   12.57652000      0.021618   -0.70369100    0.27826900
Ge    9.64822000   18.49176000    4.70224000     -0.245480   -0.00010200    0.36797200
Ge   12.07258000   20.24973000   16.06029000     -0.301675    0.49259700    0.60489100
Ge    0.97912000    6.46578000    6.26000000      0.069430   -0.46002100   -1.31592200
Ge   22.33955000    3.82589000   12.25822000     -0.457099    0.04618400   -0.01590600
Ge   20.35384000    8.39339000    7.23005000     -0.169354   -0.39345800    0.38764200
Ge   17.23017000   11.86471000   11.97359000     -0.883538   -0.93905300   -0.01905100
Ge   21.44660000   16.99442000    0.75902000      0.208801   -0.23154900   -0.24423400
Ge   19.36559000   15.21667000   13.98811000      0.916040   -0.08028500   -0.14186600
Ge   18.71587000   20.21329000    4.75865000     -0.157046   -0.57067000    0.31608200
Ge   21.86034000   20.37632000   12.86116000      0.429073   -0.98004400   -0.47415100
Ge    3.11740000    1.56553000    3.01403000      0.310400    0.50644500   -0.28630500
Ge    5.88514000    1.49970000   11.88840000      0.734238   -0.91517300   -0.63736700
Ge    6.11501000    9.68027000    4.38637000     -1.096868   -1.13914900    0.41587000
Ge    6.91312000    4.73317000   12.68485000      0.299704    0.25038900   -0.04904800
Ge    5.26880000   12.01637000   18.92129000      0.755124   -0.48814400    0.08696600
Ge    4.56426000   10.12947000   11.46030000      0.135074   -0.38604800    0.73934200
Ge    2.56341000    0.31168000    8.56466000      0.391362    0.40411600   -0.68846300
Ge    7.18366000   18.81911000   13.82109000      0.477755    0.08283500    0.24141500
Ge    8.54370000    4.01781000    3.21246000      0.665940   -0.18091300   -0.64115300
Ge    9.64353000    4.32597000   11.53123000      0.206430   -0.03917000   -0.24210500
Ge   12.61063000    9.56421000    2.34346000      0.387554    0.35488200   -0.39181200
Ge   12.23369000    7.91791000   12.64046000     -0.734627   -0.15163900   -0.77231400
Ge    9.08255000   14.10816000    1.97881000      0.600950    0.70044000   -0.19744900
Ge    9.04383000   13.38720000   10.25232000     -2.156229    1.25401300    0.13016700
Ge   10.54785000   21.33477000    1.87115000     -0.489756    0.13556500   -0.98793100
Ge   11.56921000   19.11155000   12.37171000     -0.572339    0.30227200    0.77889600
Ge    0.05413000   21.70150000   16.36104000      0.280314   -0.65382600    0.10750100
Ge   13.66881000    0.88677000   10.10999000     -0.047274    0.83191200   -0.20346100
Ge   16.57598000    6.97734000    2.29253000     -1.284854    0.33397600    0.33896400
Ge   16.31913000    7.02523000   12.78296000      0.112098    0.17163200   -1.44647400
Ge   18.21095000   12.95420000    1.27611000      0.734774   -0.26032400   -0.47481200
Ge   15.24198000   16.64186000    8.20182000      0.093574    0.08760500   -0.41776700
Ge   16.71825000   21.32466000    2.13825000     -0.158731   -1.10813700    0.75458400
Ge   16.44776000   20.33438000   11.19925000      0.597707   -0.40268700    0.20044900
Ge   19.44850000    1.58568000    3.11235000     -0.497678   -0.10611100   -0.29687700
Ge    0.21982000    1.29212000   10.61682000     -0.396607    0.29158100    1.54810100
Ge   21.28267000    7.81725000    2.13765000      0.686591    0.21519000    0.80868800
Ge    0.19451000    8.68300000   14.51452000      1.245002   -0.09328400   -0.37170200
Ge   20.60269000   12.85836000   18.61246000      0.006042   -0.14139800    0.22998200
Ge    0.11362000   15.66692000   10.01894000      0.533405   -0.59491600   -0.76436400
Ge    3.62390000   21.23018000    5.60277000      0.352186    0.51997800    0.59436100
Ge   19.04054000   18.07263000   11.89846000      0.456861   -0.23709900   -0.45392100
Se   20.28382000    0.40261000    1.00874000     -0.004366    0.82671600   -0.49980600
Se    0.17485000    0.56155000    8.37850000      0.736891    0.02535500   -0.51095600
Se    4.62670000   11.69417000    4.06226000     -0.311099   -0.05612400   -0.33946800
Se    0.83011000    6.21974000   14.01742000      0.647134    0.90041100    0.35893700
Se    0.12327000   12.38383000   17.41559000      0.745289    0.64406300    0.22959600
Se    1.20874000   13.04581000    9.25262000     -0.474761   -0.25415800    0.09247200
Se    2.39292000   18.35266000    4.50976000     -0.757890   -0.37893700    0.14202100
Se    2.12506000   15.91608000   11.65155000      0.028755    0.35471200   -0.37070000
Se    3.83557000    2.09121000    0.10482000     -0.120849    0.00979700    0.29567700
Se    7.48221000    2.95879000   10.53400000     -0.446739    0.91173700   -0.08950600
Se    7.12620000    6.52852000    2.80401000      0.095269   -0.16210200   -0.37730400
Se    9.60605000    7.60411000   11.93786000      0.296812   -0.15320800   -0.21400800
Se    7.63590000   10.37589000    1.24256000     -0.028104    0.07794700   -0.05020700
Se    6.83035000   10.97100000   12.51606000     -0.413202    0.77219300   -1.03799600
Se    4.51216000   20.51786000    3.50410000      1.218960   -0.01772500   -1.01174300
Se    9.22630000   18.36037000   11.17691000     -0.343897   -0.79363500    1.08626500
Se   10.80596000    2.54125000    1.06858000      0.005700    0.03339900   -1.16791400
Se   13.77958000    2.16777000   13.55124000     -1.024526   -0.41547500    0.57478900
Se   11.50700000    8.75198000   18.92965000      0.204390   -0.53543800   -0.24840900
Se   10.25111000   11.53291000    9.47161000     -0.693952   -1.35172900   -0.55107300
Se   13.03217000   15.12759000    3.03805000     -0.628837    1.23007400    0.18088800
Se   10.80597000   10.67302000    6.50757000      0.911158   -0.38816900    0.04264200
Se   14.49693000   18.78386000    1.21762000     -0.148642   -0.61450600    0.09272100
Se   13.27310000   16.92206000    9.77356000      0.874993   -0.55876000    0.83238000
Se   18.00204000    3.61813000    1.62868000      0.349557   -2.03297300    0.14352100
Se   16.93889000    1.61658000   13.65803000      0.287912   -0.07346900   -0.10181700
Se   15.41972000    6.65113000   18.40743000      0.439364   -0.44721300    0.38250800
Se   17.69059000    4.95830000   12.41979000      0.129286    0.37490600   -0.35452100
Se   17.95615000    9.48211000    1.13119000      0.910455   -1.17356800    1.55146300
Se   16.07606000   13.53187000    5.18789000     -0.106000    0.17954400    0.11374600
Se   20.52068000   19.80392000    0.97372000      0.557725    0.29425400   -0.04667100
Se   17.31610000   19.83499000    8.73871000      1.333412    0.05610200    0.53404100
Se    0.71083000    0.56553000    2.66828000      0.058551    0.44693400   -0.16957700
Se    6.64782000    6.96416000    9.28990000      0.470112   -0.64907100   -0.52779300
Se    7.52427000   11.30833000    3.39965000      0.992995    0.73008100   -1.23525900
Se    5.27107000   10.41329000    9.22361000      0.492040    0.78633500   -0.57652600
Se    3.73172000   13.72733000    0.68921000     -0.937177    0.17151300    0.51160100
Se    2.94248000   11.74978000   12.37358000     -1.393969    0.88528000   -0.24141200
Se    2.45528000   22.07183000   18.28377000      0.332584   -0.17648000    0.10754300
Se    6.55289000   19.62697000   10.37491000      0.062078    0.51036100    0.06765100
Se   13.18874000    5.79872000    4.61481000     -0.882137    0.63940600    0.49269600
Se    7.66767000    3.40261000    7.41234000     -0.308169    0.07957500   -0.38130900
Se   12.58736000   12.16439000    2.05008000     -1.247513   -1.19371700   -0.06148900
Se    7.66529000   10.44903000   10.33609000      0.272220    0.36367000   -0.89834200
Se   10.07885000   16.61282000    1.70685000     -0.026052   -0.48919500    0.26637100
Se   12.78517000   13.28899000   14.09944000     -1.149422    0.46493200   -1.16050100
Se    9.72132000   21.69219000   17.73471000      0.280567    0.25639200   -0.70197600
Se    7.52164000   22.06691000   12.81751000      0.332517   -0.21035600   -0.60760000
Se   14.92430000    4.94732000    1.23560000     -0.294014    1.14148000    0.01332000
Se   16.39821000    6.05983000    9.41949000     -0.192102    1.02337900   -0.23842300
Se   14.94929000   11.40623000    0.34482000      0.832192   -1.33858400   -0.03852200
Se   14.97477000   11.26768000   13.65135000      0.316630    2.56911300   -1.77676900
Se   18.56494000   15.39448000    0.96638000     -1.036155    0.49421500   -0.11026800
Se   15.57568000   10.93729000    9.98935000      0.524248    0.05090700   -0.00096000
Se   16.22249000   21.70276000   18.64714000      0.200149    0.82036300   -0.23455400
Se   15.58152000   19.18243000    7.40539000     -0.765658   -0.89753300   -0.89158700
Se   22.11517000    4.38690000    2.44392000     -0.337574   -0.53140700    0.86956800
Se   21.29762000    6.93989000   11.40989000     -0.157334   -0.19304300   -0.92747400
Se   21.16140000    5.70780000    0.73267000     -0.148422   -0.81632300   -1.09554900
Se   21.51849000   10.39859000   12.55248000      0.702199    0.19269900   -0.96974400
Se   20.31752000   15.12294000   17.36362000     -1.240271    0.07540200    0.81213200
Se   20.42688000   15.71237000   11.92168000     -0.327196    0.24181300    0.31615200
Se   20.54224000   21.71413000    4.15157000     -0.187346    0.23716800   -1.04095400
Se   18.62017000   21.58938000   10.83394000     -0.215249   -0.17953200    1.25464500
Se    2.98886000    5.94478000    8.07838000      0.274374   -0.60832200    0.32548200
Se   21.14879000    2.63431000   18.83462000     -0.475905   -1.29675400   -0.09637500
Se    3.02601000    9.43191000    8.93057000     -0.569280    0.69630200   -0.82641800
Se    0.24356000    9.54841000   17.60159000      0.945735   -0.88160400   -0.34908100
Se    4.09810000   17.69887000    8.47451000     -0.574801   -0.37558400   -0.51526200
Se    1.18435000   17.92152000   15.17384000     -0.515030    0.00483500   -0.15163900
Se    0.67383000   18.24981000   12.82730000     -0.336699    0.45829100   -0.64015800
Se    2.28402000   20.28737000   16.61519000     -1.012916    0.54441200    0.44828500
Se    2.62870000    4.43341000    5.32249000      0.698414   -0.07988200   -1.19155500
Se    5.65955000    7.11103000   18.51952000     -0.269054   -0.11003900   -0.60461700
Se    6.29385000    9.10058000    6.79492000     -1.058655   -0.41264800   -0.32391400
Se    3.46604000    7.06928000   17.39438000      0.328109    0.05644800   -0.16219200
Se    6.64197000   14.72598000   11.25562000      0.681514    0.01784000    0.06946300
Se    5.92914000   17.60734000   18.24131000     -0.253199    0.03438000   -0.20214400
Se    9.13490000   19.37083000    7.17272000      0.228915   -0.39259700   -0.14708100
Se    5.86891000   19.73352000   16.87696000      0.004484   -0.60079600    0.64849800
Se   10.44200000    1.71331000   11.17753000      0.735249   -0.11953500    1.01409400
Se   12.38525000    5.02923000   17.36632000     -0.197021   -0.09119900    0.37581800
Se   13.34465000    7.96144000    7.36207000     -0.636241   -0.13731600    0.93457800
Se   14.07045000   11.28675000   16.84020000     -0.726197   -1.30770200   -0.43569500
Se   10.72236000   15.62523000    7.78247000      0.402766    0.41929400   -0.96426900
Se   14.68339000   16.23134000   18.05435000      0.255817    0.05404800    0.13364300
Se   11.91240000    0.48203000    7.43771000     -0.295903   -0.23035100   -0.14264000
Se   13.09491000   21.37690000   18.23551000     -0.432711    0.32073600   -0.57289000
Se   13.52449000    3.49871000    9.33480000     -0.248050   -1.08786000    0.27330800
Se   21.77866000    3.44488000   15.60758000     -0.393386   -0.30163500    0.22751600
Se   19.31422000   11.46823000   10.37379000      0.030896   -0.30491000    0.25292300
Se   17.38661000    9.09645000   15.84125000     -1.016559    0.18174900    1.32867700
Se   13.67257000   16.05757000    6.07475000     -0.175435   -0.34982700   -0.02305200
Se   20.51389000   13.15138000   14.78247000      0.101846   -0.17402300   -0.12836000
Se   20.13144000   19.95684000    7.59884000      0.493642    0.61174800   -0.39479400
Se   18.51427000   19.21790000    2.23852000     -0.687489    0.38379900    0.02353900
Se    4.25449000    1.98852000    9.30101000      0.152642    0.21661800   -0.25055300
Se    1.78559000    3.19550000   18.59721000      0.869128   -0.05909000    0.33797500
Se    8.58570000    9.85265000    7.06401000      0.478744    0.21199600    0.06890700
Se    4.70209000    9.73694000    1.45808000     -0.064351    1.41815500   -1.40029500
Se    6.47862000   16.55657000    6.12962000      0.268587    0.07082700   -0.59232400
Se    4.04979000   10.35688000   17.41713000      0.181700    0.58049900    0.13363000
Se    0.80390000   18.82684000    9.76187000     -0.772490   -0.01354500    0.54850700
Se    1.46040000   18.05785000    1.26970000     -0.708035   -0.12901000    0.06306400
Se    8.46553000    0.12406000    8.97775000     -0.720239    0.18524500   -1.77471900
Se    6.94759000    3.42291000    0.69422000     -0.018187    0.10294300    0.39107200
Se   10.71935000    5.21653000    9.40605000     -0.244497    0.24238100    0.07601200
Se    8.31446000    5.68476000   18.09161000      1.838727    0.59125500    1.09564500
Se    8.91303000   12.70648000    5.42847000      0.156081    1.14951100    0.11311800
Se    8.65404000   13.67613000   17.27899000     -0.538888    0.38045800    0.70073500
Se   11.72414000   20.42757000   10.20205000      0.450431    1.28047900   -0.21919800
Se   12.16422000   13.11267000   17.93478000     -0.193655    1.27933200    0.37138600
Se   15.81582000    0.35339000    7.88137000     -0.658677   -0.02692800   -0.36305900
Se   15.59258000    2.72036000    0.43307000      0.752458   -0.00209400   -0.43567400
Se   16.91204000    3.82092000    8.97254000      0.041666   -0.94467100    0.56938800
Se   13.49333000    7.74335000   14.75085000      0.678259   -0.21856500    1.49775800
Se   16.67701000    8.98942000    9.07604000      0.413326   -0.22251600    0.23265500
Se   15.15318000   13.85968000   18.91382000      0.160152    0.93293200    0.02696300
Se   12.37420000   18.55828000    4.92841000      0.032351   -0.97085400   -0.18894900
Se   17.88726000   18.00166000   17.90939000     -1.127014    1.02392900    0.15476500
Se   20.66401000    3.12800000   10.18674000      0.833099   -0.28893300    0.33768400
Se    0.39593000   22.38228000   13.62575000      0.386990   -0.68585800    0.61720300
Se   19.73222000    8.21593000    9.86502000      0.349611    0.11148800    0.21665000
Se    0.35670000    5.68841000   17.92524000     -0.536483   -0.33387300   -0.45176500
Se   21.04558000   11.77417000    7.01177000      0.610013   -1.12029600   -0.27323500
Se   19.77327000   10.77053000   17.07712000      0.054773    0.09238600    0.75402000
Se   19.43905000   16.79909000    7.20283000      0.183957    0.09757200   -0.00217100
Se   19.80450000   17.10793000   15.50173000     -0.315614   -0.54971600   -0.31983600
Se    3.17822000   21.88995000   10.98769000     -0.013867    0.74036100    0.55617800
Se    2.02719000    1.84350000   14.41016000      0.563299   -0.12550200    0.78213500
Se    0.41233000    8.37310000    7.73597000     -1.253220    0.89549700    0.71199900
Se    1.91437000   10.01485000   15.52635000     -0.214816   -0.33180900    0.18448500
Se    3.34575000   15.28467000    7.50064000     -0.096248    0.06123000    0.33045100
Se    3.47258000   12.69572000   16.41616000     -0.927264   -0.17723700    0.67345100
Se    0.63854000   16.27804000    7.59843000      0.326234   -0.28901800   -0.22712600
Se    2.87899000   20.64407000   13.06573000     -0.564972   -0.10844500   -0.06427100
Se    5.95969000    0.14502000    2.36003000     -0.596925   -0.57237300    0.15741000
Se    6.47882000   21.60167000    0.39597000      0.313304   -0.36780000   -0.08838400
Se    9.41424000    6.46084000    6.16170000     -0.107887   -1.10210900    0.27898700
Se    4.40818000    4.57680000   13.26005000      0.442603    0.02021500    0.55179800
Se    5.21016000   13.00550000    6.05163000     -0.545768   -0.00448400   -0.28666100
Se    9.92411000   13.62098000   15.27921000      0.583827    0.68537900   -1.22583000
Se    7.03952000   17.48689000    3.83617000     -0.661044    0.21237000    0.60356900
Se    8.37310000   17.12085000   15.23588000     -0.407739   -0.07423700   -0.49448000
Se   13.71458000    0.01146000    3.40882000     -0.447784    0.09798300    0.09788200
Se   13.31655000    0.71152000   16.21746000      0.352387   -0.33649100    0.59712300
Se   14.44280000    9.74461000    4.19826000     -0.291091   -0.61158900   -0.12461700
Se   11.83366000    5.06333000   13.77123000      0.073396    1.20198400   -0.75854500
Se   13.88357000   11.72485000    5.29081000      0.579604    0.59516800    0.25228900
Se   13.86937000   14.86162000   15.45472000      0.432731    0.36353100    0.20870100
Se   12.35288000   19.10898000    7.14427000      0.077343    0.53168600    0.31272600
Se   12.21581000   19.03322000    0.56370000      0.093085    0.01017400   -0.04203800
Se   18.99959000    1.55738000    6.98385000      0.525091   -0.71651500   -0.19992200
Se   19.93820000    1.35175000   15.89956000      0.417369   -0.58314700    0.08405000
Se   20.04146000    5.25682000    7.42417000     -1.013104    1.07275400   -0.99807900
Se   19.82248000    7.01671000   16.20944000      0.104894   -0.41679700    0.86407800
Se   19.29752000   12.70054000    3.53528000      0.134868   -0.18167100   -0.19237100
Se   17.16387000   14.70758000   13.22895000     -0.693309   -0.30775300    1.17361800
Se   16.53025000   17.91135000    4.18974000      0.050427   -0.37896700   -0.26636100
Se   16.91823000   20.93515000   15.03882000      0.907637   -0.65572300    0.56538000
Se    2.41313000    8.46625000    5.07193000     -0.176496   -0.17445000   -0.16359200
Se    3.80155000    7.50946000   13.59978000     -0.103813    0.27801300    0.20695100
Se    1.49131000   12.75420000    3.77497000      0.221395   -1.13942300   -0.59731900
Se    5.10150000    9.36087000   14.28003000     -0.746906   -0.19905100    0.23244500
Se    5.54430000   14.25809000    8.35298000     -0.059392    0.85725500    0.40832600
Se    3.65233000   16.56155000   18.04132000      0.514687    0.15467000   -1.21930800
Se    3.21031000   20.50047000    8.14848000      0.166491    0.03800900    0.00527600
Se    6.35301000    0.72702000   14.43108000     -0.629813    0.64666800    1.07227000
Se    8.45982000    0.77762000    5.39078000     -0.297075   -0.49033200   -0.08654600
Se    7.55186000    2.31993000   17.58717000     -0.593576   -0.41892700   -0.03953300
Se   12.52122000   11.42572000    9.15607000      1.065933    0.03246600   -0.43681800
Se    9.23692000    8.87506000   17.44607000      0.357499   -0.18018600    0.62923200
Se    8.57176000   14.77094000    8.07499000     -0.614225   -0.24543000    0.53028500
Se   11.70318000   16.98852000   13.91432000      0.148237    0.00230900    0.20812200
Se   10.79821000   20.68150000    4.22600000      0.041839    0.15611400    0.84629200
Se   10.34994000   18.44652000   17.09593000     -0.597338    0.13309500    0.13938400
Se   10.21326000    3.33310000    5.51736000     -0.069747   -0.13373900   -0.24715300
Se   17.91778000    4.43057000   16.34668000     -0.588595   -0.61792200    0.96494700
Se   17.74200000    7.22803000    5.92041000     -0.299169   -0.07704900    0.11129300
Se   17.27805000    9.26784000   13.24643000      0.417864   -0.45483100   -1.24471400
Se   17.57688000   10.48532000    5.31476000     -0.885203   -0.39891000   -1.54790600
Se   14.29057000   18.87398000   15.93389000      0.562947   -0.45124300    0.17287800
Se   15.02014000    3.32071000    4.49758000      0.343987   -0.41321400    0.13787500
Se   18.87789000    2.79352000   12.90654000     -0.385974    0.05254700   -0.02993600
Se   22.48035000    2.90373000    5.69908000     -0.896182   -0.07924200   -0.04759800
Se    1.99729000    4.07651000   15.22540000      0.086447    0.44474900    0.56008300
Se   17.47468000   13.23377000    7.52111000     -0.276833    0.42378200   -0.57809200
Se    0.07294000   12.99266000   13.65918000     -0.130252   -0.64205700   -0.74518600
Se   19.40349000   15.58973000    4.88248000     -0.008519   -0.53905500    0.22688400
Se   20.29292000   19.59484000   14.51160000     -0.432648    0.63883000   -0.47681100
Se   20.86239000   17.39706000    9.71941000      0.299817    0.72202000   -0.43892600
Se   20.44852000   19.96038000   17.44287000     -0.071430    0.29046000    0.05213300
Se    3.66195000    1.24778000    5.70657000     -0.231358   -0.85996700    0.24041400
Se    7.57856000    3.05820000   14.52285000     -0.698279   -0.28385100   -0.16145500
Se    1.38996000    7.49704000    1.98124000      0.169517    0.23575700    1.19573800
Se    5.12717000    7.58822000   11.16419000      0.422606   -1.03561200    0.64539300
Se    1.36642000   15.35492000    2.23708000      0.218866   -0.33698400   -0.94754700
Se    6.18812000   14.82134000   14.56376000     -0.206765    0.00257000   -0.00536800
Se    4.69631000   17.46468000    3.18795000      0.230615   -0.62789500   -0.37949700
Se    5.23108000   18.25307000   11.91608000      1.423481   -0.97191700    0.63433200
Se    9.35348000    1.26349000    2.26500000     -0.310781   -1.07106400    0.50263100
Se   10.40968000    1.09966000   16.40193000     -0.160746   -0.55591900    0.50882100
Se   10.25323000    8.70840000    2.79217000     -0.387866    0.08311500    0.99724500
Se    7.50930000    6.44748000   14.96006000     -0.024537    0.44352000   -0.59057800
Se   11.04321000   11.61790000    4.19238000     -0.185743    0.86090200    0.01108300
Se   10.83794000   11.49045000   12.39691000     -1.646334    0.34860500    0.62929900
Se    8.06843000   19.88771000    1.74387000      0.763530   -0.19193300   -1.21423200
Se   16.60093000   18.09660000   12.70254000     -0.129560    0.68454600   -0.02146000
Se   13.33386000    3.55769000    6.35629000      0.779279    0.19788400   -0.03184000
Se   15.91849000    1.07091000   16.31607000     -0.478938    0.82060400    0.04211500
Se   16.57636000    5.30765000    4.49130000     -0.161590    0.36127500    0.52838500
Se   12.69492000   10.57499000   11.52899000      1.414354   -0.93487200   -0.28008400
Se   16.44752000   11.46785000    2.27464000     -0.834804    0.16344200    0.87869200
Se   17.56268000   12.88603000   16.29817000      0.966764   -0.29869600   -0.02843800
Se   16.26476000   16.34255000    2.42748000      0.419089   -0.21960500    0.05857100
Se   14.64137000   21.56700000   12.39482000     -0.205729    0.70046100    0.04296300
Se    0.11252000   19.50474000    7.41960000     -0.508309    0.20507600    0.15348100
Se   20.95127000    1.21698000   13.35874000      0.151131    0.40223900   -0.67362400
Se   21.35992000    6.43943000    4.24863000      0.218726   -0.17375000   -0.11426400
Se   20.33143000    8.52613000   14.44304000     -0.604954    1.08282800   -0.38029700
Se    1.09885000   14.42186000    5.44824000     -1.551099    0.36565300    1.31414600
Se    1.71297000   14.36901000   14.84612000      0.798344    0.55677300   -1.37240100
Se   20.48847000   17.89112000    3.70447000      1.003663    0.62541300   -0.06462700
Se   21.35240000   21.14784000   10.65870000     -0.285095   -0.08770000    0.03245000
Se    2.73586000    4.19963000    2.78997000      0.083881   -0.69349200    1.30413200
Se    1.95875000    3.65121000   10.98392000     -0.614674   -0.06248400   -0.25286900
Se   22.08828000   10.57022000    1.38972000      0.704493    0.24648100   -2.05940200
Se    0.98003000    8.87934000   12.11036000     -0.391689    1.08781700    0.23505100
Se    0.72910000   16.76955000   17.66142000     -0.142760   -0.42269600    0.35375800
Se    4.40066000   16.11203000   13.63115000     -0.106255   -0.51318600   -0.44536600
Se    1.29445000   20.90888000    3.63880000      1.260023    0.03481200    0.68267500
Se    4.75416000   20.57928000   14.33645000      0.873145    0.07738500    0.48471500
Se    6.45207000    2.47303000    3.34923000     -0.107527    1.23671100    0.82719700
Se   10.06785000    3.79968000   14.83112000     -0.233014   -0.47525400   -0.18377100
Se    5.11439000    5.77152000    5.16490000     -0.947587   -0.17072500    0.03884000
Se    7.82403000   10.79463000   15.26564000      0.118036    0.79131800    0.56676700
Se    7.05425000   14.40507000    0.73146000     -0.621155    0.20662800    0.44024500
Se   10.90645000   14.50751000   11.12701000      1.386448    0.86186200    0.19762400
Se    6.31091000   20.55640000    6.56422000     -1.092043    0.58576400   -0.08050800
Se   10.27253000   20.60433000   14.03953000      0.291047    0.33939800   -0.43927900
Se   12.45106000    3.12308000    2.70214000      0.720752    2.35974100    0.41931100
Se   14.26139000    7.13686000   11.16018000     -0.274824   -0.18554400   -0.00440900
Se   13.52086000    6.92111000    2.56857000     -0.290722    0.54951300   -0.44720200
Se   11.41831000    9.74136000   14.57194000      0.036605    0.02902300    0.04007300
Se    8.73221000   14.91858000    4.23085000     -0.015898   -1.14326600    0.73136600
Se   14.95735000   13.53723000   10.79410000     -0.490130    0.22730400    0.03660800
Se   14.54141000   20.34397000    3.62218000      0.908535    0.69158000   -0.76395700
Se   13.78672000   19.67623000   13.42605000     -0.330129   -0.62519600   -0.58545500
Se   18.60690000    5.75326000    1.84490000      1.128880    1.38544500    0.07816000
Se   15.50868000    5.96439000   14.73405000     -0.446996    0.14231200    0.84125700
Se   19.71168000    8.82082000    4.05155000      0.262077    0.47387700    0.09325000
Se   18.76385000   13.62470000    9.52034000      0.784978    0.56041900    0.69815700
Se   21.57592000   14.28058000    1.84683000      0.312823    0.66500600    0.08933600
Se   17.58553000   17.06529000    9.86884000     -0.187858   -0.62299800   -0.07570600
Se   17.10202000    0.43934000    3.89045000      0.810375    0.51372900   -0.27826900
Se   15.96247000    1.64568000   11.23327000      0.522351   -0.28558100   -0.60478500
