384
22.54784000 22.54784000 18.93360000
Ge    5.83001000    4.20706000    8.76691000     -0.366036    0.40060100    0.67336800
Ge    4.42639000    8.10084000    3.11779000      0.006525   -1.19806000    0.42528100
Ge    2.15265000   12.45851000    6.54059000      0.552181   -0.61341700    0.91064900
Ge    6.83743000    8.66600000   16.12925000     -0.265604   -0.69968200    0.71704200
Ge    3.22854000   13.89327000   10.55575000      0.312197   -0.53701600   -0.11351400
Ge    8.48834000   17.80970000    0.10749000      0.401393    0.15293200   -0.08262800
Ge    6.39552000   18.41579000    7.90928000      0.705580    0.25546100   -0.60385300
Ge    4.47806000    3.60593000   15.69341000      0.429651   -0.32834500   -0.04207600
Ge    9.31849000    7.40518000    8.63855000     -0.147739   -0.20700300    0.46791300
Ge   11.06155000    6.66657000    1.61623000     -0.160278    0.17675800   -0.58571600
Ge   11.84178000    8.12549000    9.71118000      0.227137   -0.42401800   -0.93093000
Ge   10.37278000   12.25318000    0.48437000     -0.251751   -0.10486900    0.04513700
Ge   11.10377000   18.21725000    9.53900000     -0.576994   -0.63455200   -1.43502800
Ge   12.53089000   15.79774000    0.67322000     -0.069131   -0.25667800   -0.08802300
Ge    9.01192000   21.32016000   10.75956000      1.178277   -1.31940800    1.54301200
Ge   13.64083000    1.67630000    1.28674000     -0.722823   -2.35850300   -0.94530300
Ge   18.97047000    5.48489000    9.89552000     -0.568302   -0.11844300    0.43024800
Ge   18.24282000    7.38283000   18.31940000     -1.133893   -0.40752300   -0.01523500
Ge   16.92588000   14.78501000   10.88095000      0.445425    1.09289400   -0.70425900
Ge   17.43775000   10.57874000   18.01288000     -0.299377    0.64198900   -1.04721200
Ge   12.76559000   14.50161000    8.84246000      0.252073    0.12966900    1.46215000
Ge   17.44747000   15.41069000   17.13116000      0.038982    0.29369000    0.85559300
Ge   14.42658000    3.68853000   11.59384000      0.371869    0.15376900    0.27322100
Ge   18.66125000    2.36229000   17.77197000     -0.255949    0.80900100    0.33166200
Ge    0.53434000    6.52321000    9.38376000     -0.833909   -0.53280000    0.85799400
Ge   20.11871000    3.73616000    4.64845000      1.186178    0.18492900    0.16155200
Ge   21.68558000   10.76796000    9.70959000      0.307838    0.10021500    0.07312900
Ge   20.63022000    8.98066000   18.80009000     -0.720356    0.67012600   -0.33799900
Ge   20.26415000   14.27022000    6.95389000     -0.525954    0.52270900   -0.20121800
Ge    5.25491000   14.53978000   16.97307000      0.249880    0.29630600    0.57511900
Ge   17.70703000   21.89198000    6.61966000     -0.128449    0.53821600    0.28515700
Ge   22.06382000   19.93465000    5.15463000     -0.689018   -0.37915800   -1.31653100
Ge    4.04000000    7.80188000    6.80247000      0.180261    0.32373100   -0.01335300
Ge    1.49958000    7.63926000   18.57068000     -0.138693    0.58482800   -0.33851700
Ge   20.99159000   10.88171000    3.26507000     -1.035747    0.53098600    1.63258100
Ge    4.44139000   12.05262000   14.31973000      1.247962   -0.00483300   -0.85120500
Ge    3.43813000   15.17901000    4.84298000      1.360029    0.30610900    0.13684100
Ge    1.09828000   20.96294000    1.15318000     -0.421109   -0.33238400   -0.49684900
Ge    3.18304000   18.36846000   10.69707000     -1.299656   -0.17563200    0.05051300
Ge    0.54553000    1.73840000   16.90059000     -0.656374    0.61012300    0.47788900
Ge   10.16832000    2.08268000    8.76528000     -0.072160    0.57523100   -0.79393200
Ge    6.53422000    5.15260000   16.79900000     -1.337494   -0.08611500   -0.61186500
Ge    8.35776000    8.17238000    4.56875000     -0.184080   -0.15510100    0.41373500
Ge   10.78353000    6.70630000   16.21001000      0.039205   -0.19376000    0.09286800
Ge    6.82023000   16.44189000    9.49925000      0.270442   -1.59882300    0.36880300
Ge   10.92320000   15.27717000   17.03777000     -0.511229   -0.88764000   -0.37660500
Ge    9.69560000   21.78567000    6.77872000      0.177088   -0.28584600    0.35545900
Ge   10.98653000    1.30034000   13.79549000      0.338463   -0.07955100   -0.19744800
Ge   11.45174000    7.74207000    5.59412000      1.088020    0.36250800   -0.36970600
Ge   15.47333000    3.82916000   16.99258000      1.594165   -0.42998100    0.14534100
Ge   15.86014000    8.56071000    6.83701000     -0.445006    0.61216100   -0.76931200
Ge   15.32844000   12.75564000   15.64329000      0.498882    1.39090200   -0.78796400
Ge   12.17046000   13.95085000    6.35576000     -0.054986    0.34565200   -0.53509500
Ge   15.61229000   19.38932000   17.94488000      0.403879   -1.14835900    0.79754800
Ge   13.82692000   21.16723000    8.00269000      0.248826    0.14363600    0.52278200
Ge   19.03925000   21.79935000   13.62890000     -0.497917   -0.05543300   -0.00341500
Ge   21.93168000    4.37223000    8.46633000      0.817662   -1.03182700   -0.64641600
Ge   21.03110000    6.00403000   14.27943000     -1.127215   -1.67434600   -0.78786000
Ge   18.56653000   10.88159000    7.32783000      0.824442    0.07701200    1.56925500
Ge    0.03229000   14.54221000   16.48994000      0.353392    0.87489400    0.71241000
Ge   17.20547000   16.29437000    6.09453000     -0.078422   -0.70621100    0.05401900
Ge   17.11997000   18.32320000   15.35011000     -0.147729    0.42029100   -0.37035800
Ge   21.27209000    0.27508000    6.29240000     -0.661626    0.85138300   -0.10665600
Ge   18.55852000   21.87842000   17.19307000     -0.149716    0.07760000   -0.43330600
Ge    6.38379000    0.55382000    7.13466000     -0.051191    0.35493800   -0.22287200
Ge    3.60179000    2.24946000   12.51275000     -0.832756    0.49673700   -0.74732600
Ge    0.21618000   10.68145000    5.00295000      0.339694    0.68259900    0.82530300
Ge    2.74564000    7.37639000   10.23835000      0.710131   -0.05407800    0.37270300
Ge    0.34985000   16.92934000    3.90610000      0.608129    0.11651900    0.20654400
Ge    3.80325000   17.83845000   15.35588000     -0.105617    0.52008900    1.09081200
Ge    5.28857000   21.63020000    9.59396000      0.108110   -0.01693000   -0.34500800
Ge    8.31427000   20.06938000   16.02192000      0.947720   -0.20581500    0.18256100
Ge    5.08352000    5.34353000    1.37209000      0.383558    0.13596100    0.35454600
Ge    9.72137000    3.51737000   17.67747000      0.477883    0.29241600   -0.40192600
Ge    7.10165000    4.32699000    5.21513000     -0.067310   -0.00839600    0.20381600
Ge    8.80359000    9.65381000   13.17765000      1.500753   -0.39160800   -0.14494500
Ge    5.11291000   14.41067000    2.51850000      0.793493    0.49258300    0.78610800
Ge   10.00169000   11.12665000   16.46388000      0.411851   -0.32221000    0.20949900
Ge    7.22439000   20.61061000    4.08353000     -0.667050    0.01907400    0.51015200
Ge    9.63841000   15.93985000   13.03508000     -0.741322    0.10049800    0.06664200
Ge   12.16353000    1.93736000    4.88904000     -0.693114   -0.90074200    0.98749700
Ge   13.66284000    4.15074000   15.24021000     -0.786425    0.09237100   -0.18013700
Ge   17.70617000    3.84812000    6.69356000      0.571952    0.08952900   -0.67900500
Ge   15.03834000    9.63982000   15.21822000      0.460330   -1.36840000    2.01116500
Ge   14.56823000   13.28539000    3.08185000      0.915362    0.17636400    0.25915300
Ge   13.32248000   15.59020000   12.62447000      0.423915   -0.91347100   -0.03348800
Ge    9.63556000   18.49543000    4.73217000     -0.182566    0.11447900    0.24035000
Ge   11.99749000   20.27012000   16.08590000     -0.043544    0.33928800    0.56738900
Ge    0.97879000    6.51950000    6.29226000      0.256782   -0.82068700   -1.60057000
Ge   22.34723000    3.80365000   12.27793000     -0.606408    0.02853700    0.12806700
Ge   20.32709000    8.41997000    7.22743000     -0.190389   -0.27693400    0.37101900
Ge   17.21299000   11.84400000   11.94760000     -0.777977   -0.74340700    0.09112300
Ge   21.48741000   17.00068000    0.76027000      0.261660   -0.15528800   -0.21330200
Ge   19.38499000   15.18175000   13.97057000      0.544653    0.00661700   -0.53727700
Ge   18.70651000   20.09913000    4.75156000     -0.007582   -0.16813100    0.20605600
Ge   21.85777000   20.41761000   12.87413000      0.258654   -1.37164800   -0.01999900
Ge    3.15053000    1.59499000    3.01797000      0.221220    0.37480700   -0.24032700
Ge    5.91630000    1.50133000   11.83604000      0.617312   -0.99416700   -0.54815600
Ge    6.11228000    9.68939000    4.35681000     -1.235206   -0.83340100    0.39021600
Ge    6.91503000    4.72713000   12.69003000      0.352785    0.24260900   -0.02250300
Ge    5.34123000   12.04560000   18.88573000      0.663190   -0.67390500   -0.09714900
Ge    4.57272000   10.16550000   11.45296000     -0.068595   -0.38007900    0.64128700
Ge    2.56678000    0.32541000    8.55880000      0.625452    0.20853100   -0.86577600
Ge    7.20378000   18.88444000   13.85600000      0.351159   -0.12451600    0.13529400
Ge    8.56907000    4.04589000    3.12685000      0.158964   -0.11803900   -0.09273600
Ge    9.63317000    4.31775000   11.51062000      0.303469   -0.01157400   -0.21995000
Ge   12.62669000    9.56592000    2.27896000      0.291011    0.52039300   -0.27034000
Ge   12.30045000    7.86474000   12.68097000     -1.155554   -0.05330300   -1.29812500
Ge    9.06382000   14.18976000    1.95123000      0.689133    0.44829200   -0.45542200
Ge    9.03908000   13.41385000   10.22225000     -1.924510    1.41689400    0.34974200
Ge   10.52079000   21.32889000    1.87454000     -0.506977    0.20125900   -1.03194900
Ge   11.51381000   19.08127000   12.41758000     -0.621652    0.79106400    0.29171800
Ge    0.05733000   21.68131000   16.33828000      0.389455   -0.71406400    0.08930400
Ge   13.59634000    0.90426000   10.10022000      0.195342    0.85099300   -0.00268000
Ge   16.57044000    7.01278000    2.31235000     -0.832380    0.06560200    0.16540200
Ge   16.32340000    7.07497000   12.74942000      0.021907   -0.11666000   -0.85075500
Ge   18.23852000   13.02849000    1.25935000      0.523375   -1.16424100   -0.17240000
Ge   15.22714000   16.64551000    8.26391000      0.167001    0.26371000   -0.48986900
Ge   16.68681000   21.36856000    2.10431000     -0.012668   -1.20593900    0.91244900
Ge   16.45454000   20.30922000   11.20844000      0.729286   -0.31813200    0.05151700
Ge   19.39468000    1.62165000    3.09183000     -0.424384   -0.14254600   -0.23110500
Ge    0.15531000    1.27792000   10.60310000     -0.391459    0.30021500    1.49592300
Ge   21.25696000    7.83444000    2.15996000      0.841302   -0.12859000    0.53493600
Ge    0.20800000    8.61469000   14.55281000      1.663976    0.13373100   -0.25128100
Ge   20.62614000   12.89932000   18.66296000      0.248217   -0.65050000    0.17716800
Ge    0.12882000   15.66488000   10.00020000      0.606174   -0.60997300   -0.57927200
Ge    3.56293000   21.19376000    5.63063000      0.421405    0.48488900    0.14418700
Ge   19.07328000   18.03389000   11.89552000      0.135124   -0.15181700   -0.34554700
Se   20.28489000    0.37997000    1.04818000     -0.098885    0.92203200   -0.63303700
Se    0.22147000    0.50147000    8.37110000      0.219891   -0.01790300   -0.54888100
Se    4.61743000   11.69577000    4.03141000     -0.168976   -0.01218300   -0.05395900
Se    0.84587000    6.21132000   14.01152000      0.783011    0.84646500    0.35380500
Se    0.17359000   12.39025000   17.40816000      0.461485    0.35156400    0.58394800
Se    1.19632000   13.05530000    9.27299000     -0.460191   -0.22835700    0.03453400
Se    2.42358000   18.34389000    4.54753000     -0.667436   -0.15629100    0.09101800
Se    2.14446000   15.92258000   11.63089000      0.040420    0.40129100   -0.35429100
Se    3.80193000    2.09004000    0.07386000      0.082883   -0.13020600    0.31010600
Se    7.43346000    2.97560000   10.50440000     -0.179654    0.82017600   -0.10738900
Se    7.12162000    6.50054000    2.73449000      0.156965   -0.17769000   -0.21461200
Se    9.60510000    7.63176000   11.97019000      0.184162   -0.17940700   -0.17418300
Se    7.62794000   10.40659000    1.26518000     -0.059182   -0.14577000   -0.48596400
Se    6.86864000   10.97507000   12.42842000     -0.642979    0.90665000   -0.21198400
Se    4.50377000   20.47438000    3.48994000      1.162603    0.04014800   -0.59198700
Se    9.22837000   18.31592000   11.20995000     -0.310739   -0.69716900    1.02208100
Se   10.74971000    2.53476000    1.06833000      0.086467   -0.02898500   -0.88092700
Se   13.73729000    2.19542000   13.59164000     -0.792595   -0.48383800    0.28518700
Se   11.44481000    8.75894000   18.92258000      0.351300   -0.48147300   -0.18162400
Se   10.24425000   11.56298000    9.48941000      0.281182   -1.42847800   -0.61898800
Se   13.01095000   15.16889000    3.08536000     -0.406128    1.00466400   -0.04604100
Se   10.76806000   10.70145000    6.43337000      1.032823   -0.70182300    0.62336600
Se   14.51809000   18.74061000    1.24510000     -0.249891   -0.55473600   -0.12168000
Se   13.28838000   16.95955000    9.83990000      0.534955   -0.45686700    0.70786000
Se   17.95244000    3.59089000    1.65019000      0.392786   -1.35594300    0.24130100
Se   16.93286000    1.59145000   13.69950000      0.171247    0.02026500   -0.38672400
Se   15.42219000    6.59619000   18.40074000      0.419547   -0.41119700    0.50500800
Se   17.60920000    4.95693000   12.44630000      0.334044    0.28065800   -0.47793400
Se   18.02241000    9.45188000    1.11328000      0.702700   -0.94719700    1.05112200
Se   16.04822000   13.50759000    5.16780000     -0.134067    0.07576900    0.13829100
Se   20.55811000   19.85774000    0.95104000      0.201629    0.10146900    0.39318900
Se   17.37912000   19.87417000    8.68865000      1.019012   -0.13644100    0.44344900
Se    0.68010000    0.57592000    2.65163000      0.370669    0.13172200   -0.07557300
Se    6.62808000    6.94662000    9.28608000      0.524648   -0.65465900   -0.66202200
Se    7.55015000   11.30455000    3.37146000      0.955319    1.01272800   -0.73099200
Se    5.28635000   10.41891000    9.19731000      0.202032    0.63998300   -0.35413900
Se    3.76663000   13.72425000    0.71624000     -1.593824   -0.11255700   -0.31721400
Se    2.87789000   11.75101000   12.39135000     -0.719310    0.69248200   -0.00229500
Se    2.50017000   22.02439000   18.28023000      0.311584   -0.00031600    0.19152200
Se    6.59114000   19.55385000   10.39183000     -0.037834    0.93679100   -0.25462900
Se   13.22626000    5.82813000    4.60599000     -1.057201    0.27607600    0.88859500
Se    7.64854000    3.38863000    7.40551000     -0.169008   -0.12220700   -0.22572600
Se   12.58534000   12.16867000    2.03016000     -1.246507   -1.25498800   -0.06540000
Se    7.68567000   10.44431000   10.35293000      0.519357    0.22772000   -1.74230700
Se   10.07174000   16.65619000    1.69399000     -0.168824   -0.49773200    0.11669200
Se   12.77044000   13.23400000   14.13004000     -1.120010    0.68992800   -0.92052500
Se    9.72474000   21.67397000   17.70416000      0.285203    0.26043400   -0.74062300
Se    7.50093000   22.11670000   12.83171000      0.747878   -0.61422200   -0.96341600
Se   14.89275000    4.95202000    1.28175000     -0.230307    0.93206800   -0.13750400
Se   16.35036000    6.04000000    9.46945000     -0.156494    1.50219800   -0.24008200
Se   14.97522000   11.37750000    0.37052000      0.729524   -1.24362500    0.03125300
Se   14.97294000   11.24527000   13.64970000      0.302719    2.21478500   -1.64165400
Se   18.51655000   15.36795000    0.93513000     -0.745248    1.17622800   -0.11395100
Se   15.60098000   10.91306000    9.99980000      0.207043    0.36571200    0.02570700
Se   16.21107000   21.63816000   18.59853000      0.140695    1.09306000   -0.39032100
Se   15.59792000   19.21903000    7.36233000     -0.588811   -0.82095400   -0.46089500
Se   22.14133000    4.40074000    2.42311000     -0.542101   -0.27475700    0.63508600
Se   21.32416000    7.00369000   11.40774000     -0.229909   -0.14195100   -1.00037300
Se   21.07730000    5.70229000    0.70772000      0.531465   -0.71324600   -0.79303800
Se   21.52842000   10.44316000   12.58933000      0.748818    0.11169100   -1.14814600
Se   20.35082000   15.09948000   17.36499000     -1.396986    0.22129000    0.79212700
Se   20.42255000   15.69883000   11.83993000     -0.445433    0.12362700    0.81062300
Se   20.51242000   21.69164000    4.11806000     -0.242635    0.03164200   -0.50003200
Se   18.66354000   21.62939000   10.89676000     -0.443644   -0.37241200    1.07727200
Se    3.02224000    5.96823000    8.02864000      0.213593   -0.67625100    0.54517400
Se   21.10011000    2.65058000   18.80444000     -0.356942   -1.32643300   -0.04169000
Se    3.01254000    9.41741000    8.89109000     -0.255912    0.71622000   -0.68399400
Se    0.20443000    9.53126000   17.59303000      1.258895   -0.72600500   -0.67929700
Se    4.09742000   17.69906000    8.52080000     -0.525468   -0.48381900   -0.81615500
Se    1.17579000   17.90827000   15.16856000     -0.040689   -0.00013400    0.01009700
Se    0.63607000   18.25237000   12.87088000     -0.288989    0.44208000   -0.83424900
Se    2.30650000   20.22864000   16.65673000     -1.102165    0.49607800    0.28277000
Se    2.61164000    4.42759000    5.30156000      0.781706    0.10418500   -1.07254200
Se    5.66130000    7.16970000   18.50800000     -0.314448   -0.31007600   -0.51633000
Se    6.20952000    9.08290000    6.77795000     -0.324966   -0.18817000   -0.32069800
Se    3.47052000    7.03687000   17.37407000      0.553754   -0.03650500   -0.33378200
Se    6.72943000   14.75777000   11.25028000      0.779010   -0.35265000    0.59678800
Se    5.85280000   17.56605000   18.23630000      0.258861    0.24425500    0.03247600
Se    9.15142000   19.30037000    7.21254000      0.209050   -0.12315900   -0.17762800
Se    5.86611000   19.73627000   16.83313000     -0.240061   -0.60370400    0.73941200
Se   10.44597000    1.72903000   11.15493000      0.741817   -0.10632900    1.06754000
Se   12.41768000    5.02022000   17.40363000     -0.409469    0.10478900   -0.03414900
Se   13.28587000    7.95750000    7.37957000     -0.630552   -0.14816300    0.90753800
Se   14.06892000   11.29844000   16.86158000     -1.323945   -1.90909700   -0.00851300
Se   10.77940000   15.64326000    7.77236000     -0.565811    0.40455500   -0.93820900
Se   14.65051000   16.23310000   18.03473000      0.329916   -0.05577400    0.20133700
Se   11.81475000    0.48525000    7.48525000      0.026653   -0.28907900   -0.20633500
Se   13.03111000   21.38930000   18.24165000     -0.304750    0.32042600   -0.44617400
Se   13.54322000    3.45148000    9.30497000     -0.356676   -1.04649600    0.24005600
Se   21.75614000    3.41544000   15.56424000     -0.372476   -0.23191200    0.25990900
Se   19.31403000   11.42117000   10.41353000      0.146834    0.13895900   -0.06940900
Se   17.37791000    9.09236000   15.86200000     -0.878660    0.08677200    1.30211900
Se   13.62825000   16.04360000    6.09227000      0.017656   -0.22680300   -0.02205600
Se   20.52390000   13.11564000   14.74325000     -0.119499   -0.22614600   -0.00137900
Se   20.07866000   19.93793000    7.58378000      0.411957    0.50316600   -0.27802500
Se   18.44360000   19.22652000    2.21778000     -0.273846    0.62046500   -0.19827600
Se    4.20871000    1.95594000    9.34035000      0.331274    0.35697900   -0.27543200
Se    1.77523000    3.19116000   18.61535000      0.540829   -0.09033500    0.18378400
Se    8.63305000    9.85633000    7.10379000     -0.003425   -0.03263000   -0.19446100
Se    4.69086000    9.74284000    1.47386000     -0.158436    1.04335500   -1.02487900
Se    6.49507000   16.56787000    6.13818000      0.148147   -0.04429500   -0.68343600
Se    4.03015000   10.30037000   17.39745000      0.203597    0.66396600    0.42444200
Se    0.78249000   18.77382000    9.78785000     -0.675745    0.05994400    0.54962200
Se    1.49783000   18.04085000    1.28797000     -0.872316   -0.38815000    0.10402000
Se    8.38712000    0.06782000    8.98222000     -0.536876    0.87622000   -2.16266300
Se    6.94352000    3.43970000    0.74904000     -0.026706    0.07280600    0.25322400
Se   10.73525000    5.21031000    9.41726000     -0.345771    0.31722100   -0.01036100
Se    8.32329000    5.70552000   18.16764000      1.908125    0.46502100    1.03021100
Se    8.94827000   12.76107000    5.45117000      0.113669    0.93665800    0.03187900
Se    8.61017000   13.66623000   17.36196000      0.003433    0.42051600   -0.02551700
Se   11.73571000   20.46332000   10.19101000      0.238264    1.07698100    0.03752200
Se   12.13735000   13.17472000   17.88544000     -0.315710    1.00472400    0.79938100
Se   15.81135000    0.32878000    7.88799000     -0.614151    0.17091600   -0.29038000
Se   15.61448000    2.71999000    0.44385000      0.761914    0.10441800   -0.42327900
Se   16.89316000    3.86931000    9.00680000      0.352788   -1.48822800    0.18410100
Se   13.51269000    7.74988000   14.73248000      0.906619   -0.31224600    2.09960500
Se   16.65011000    8.98893000    9.10967000      0.767121   -0.63853900    0.33231500
Se   15.15588000   13.84238000   18.87404000      0.142895    0.99198800    0.04687100
Se   12.41841000   18.56776000    4.87957000     -0.210129   -0.85064400   -0.11798800
Se   17.91679000   17.98731000   17.97188000     -1.261059    1.08937000   -0.06433100
Se   20.67261000    3.16871000   10.19041000      0.517798   -0.42811300    0.47323400
Se    0.44548000   22.36133000   13.62022000      0.307928   -0.40325700    0.60055600
Se   19.69721000    8.21414000    9.88450000      0.383722    0.17567200    0.15343300
Se    0.39919000    5.67523000   17.92739000     -0.742197   -0.36484200   -0.42102500
Se   21.05745000   11.72803000    6.97904000      0.536722   -1.04904700   -0.20159200
Se   19.77292000   10.76727000   17.05850000      0.135055    0.11755300    0.82509800
Se   19.51952000   16.76526000    7.14856000     -0.135716    0.12424800   -0.15485700
Se   19.83406000   17.03074000   15.57584000     -0.293457   -0.31122500   -0.64960400
Se    3.16455000   21.97253000   11.00048000     -0.035823    0.65790500    0.91452200
Se    2.05549000    1.83692000   14.40981000      0.641184   -0.21562900    0.87546500
Se    0.41656000    8.37627000    7.74915000     -1.386066    1.48517500    0.63090100
Se    1.90549000   10.03660000   15.56580000     -0.121625   -0.43689000    0.01991400
Se    3.37385000   15.27802000    7.50906000     -0.248510    0.06531800    0.41961700
Se    3.48126000   12.75132000   16.40230000     -1.192279   -0.39613900    0.59986000
Se    0.64596000   16.29710000    7.63545000      0.402839   -0.42252500   -0.52523900
Se    2.88504000   20.69904000   13.02668000     -0.318790   -0.39683900    0.18495000
Se    5.98672000    0.12801000    2.31417000     -0.918867   -0.48483000    0.61580700
Se    6.44885000   21.61025000    0.39012000      0.387373   -0.49804300   -0.68767600
Se    9.42080000    6.46227000    6.19886000     -0.299819   -0.45423800   -0.05659800
Se    4.42992000    4.58964000   13.28946000      0.283385   -0.23270000    0.18707700
Se    5.21259000   12.97475000    6.07750000     -0.700824   -0.03791900   -0.49426600
Se    9.93413000   13.59574000   15.26043000      0.259447    0.77126700   -0.55118700
Se    6.99651000   17.45801000    3.83093000     -0.481686    0.25269300    0.61952200
Se    8.33830000   17.06189000   15.25016000     -0.449696    0.23722100   -0.55907800
Se   13.72052000    0.04000000    3.37948000     -0.227277   -0.32654700    0.15085300
Se   13.34559000    0.74486000   16.18249000      0.355211   -0.35421600    0.74637000
Se   14.45879000    9.74494000    4.19417000     -0.273873   -0.60369800   -0.18299400
Se   11.86494000    5.08257000   13.73436000      0.368575    1.14652900   -0.50031000
Se   13.88214000   11.72088000    5.25930000      0.562704    0.65966200    0.19640500
Se   13.88908000   14.89166000   15.42132000      0.372113   -0.11294400    0.11403300
Se   12.38338000   19.07903000    7.10509000      0.167210    0.65895500    0.28968000
Se   12.23815000   18.99821000    0.57256000      0.133441    0.12738000   -0.14232800
Se   19.02205000    1.50332000    6.99975000      0.301214   -0.47595000   -0.08363600
Se   19.88392000    1.35190000   15.87770000      0.517854   -0.69654600    0.04295500
Se   20.02746000    5.21782000    7.33557000     -0.862456    1.00108300   -0.42409800
Se   19.90410000    7.05512000   16.20202000      0.090104   -0.73791300    1.24056100
Se   19.34480000   12.66770000    3.53825000      0.023017    0.12105600   -0.37096000
Se   17.09483000   14.71655000   13.23927000     -0.123881   -0.14407100    0.98148700
Se   16.49472000   17.86234000    4.17100000      0.113079    0.15335600   -0.02011600
Se   16.98134000   20.91152000   15.00614000      0.713969   -0.50362400    0.62452100
Se    2.45342000    8.47705000    5.04994000     -0.092077   -0.31372300    0.06660100
Se    3.82386000    7.49720000   13.58417000      0.148841    0.67982100    0.32610600
Se    1.53897000   12.77081000    3.69012000      0.171522   -0.98388900   -0.30730600
Se    5.18670000    9.41575000   14.27630000     -1.203192   -0.74561600   -0.12282300
Se    5.55561000   14.29290000    8.42246000     -0.030263    0.62249800    0.23703000
Se    3.65080000   16.58144000   18.07506000      0.300778    0.06147500   -1.22636000
Se    3.20384000   20.50794000    8.19460000      0.200473    0.08724900    0.20415600
Se    6.35457000    0.75919000   14.41145000     -0.919282    0.74913600    1.49800300
Se    8.41510000    0.71273000    5.33442000     -0.395090   -0.21337500   -0.18609600
Se    7.53425000    2.38048000   17.60638000     -0.626780   -0.52207800   -0.08696400
Se   12.61350000   11.41212000    9.16595000      0.149780    0.00039700   -0.25830300
Se    9.23927000    8.81427000   17.47699000      0.209786   -0.21345000    0.53637800
Se    8.56153000   14.72374000    8.09456000     -0.166620    0.22123000    0.23546500
Se   11.73795000   17.01258000   13.90153000     -0.156687   -0.02670000    0.70142200
Se   10.77718000   20.70737000    4.21347000      0.052941    0.06599400    1.02533700
Se   10.37422000   18.46933000   17.12227000     -0.802276    0.08359300    0.04072200
Se   10.20738000    3.29474000    5.59529000     -0.013253   -0.09759400   -0.34863300
Se   17.97658000    4.47471000   16.32547000     -0.655297   -0.64442500    1.01026400
Se   17.69766000    7.21088000    5.94342000      0.207636   -0.22301500    0.05513700
Se   17.28071000    9.27191000   13.19552000      0.430127   -0.43447700   -1.15257300
Se   17.56866000   10.47751000    5.33719000     -0.959407   -0.35094800   -1.32386100
Se   14.34537000   18.93413000   15.94621000      0.432899   -0.26076600   -0.00831500
Se   15.00786000    3.32857000    4.51131000      0.143688   -0.44730200    0.09510300
Se   18.87414000    2.77813000   12.96884000     -0.363227    0.22052100   -0.03691400
Se   22.41006000    2.87516000    5.69079000     -0.768727   -0.23918400   -0.06236500
Se    2.02812000    4.07077000   15.18249000     -0.087053    0.42267000    0.64485000
Se   17.43694000   13.25144000    7.54574000     -0.108478    0.23592800   -0.60326100
Se    0.07144000   12.94651000   13.66704000      0.296684   -0.47289700   -0.72439500
Se   19.34477000   15.60423000    4.82347000     -0.007986   -0.70819300    0.57376700
Se   20.31187000   19.59648000   14.55996000     -0.305814    0.80798000   -0.68764100
Se   20.85396000   17.38776000    9.71668000      0.221983    0.78139700   -0.59649400
Se   20.42778000   20.01710000   17.48267000      0.018549    0.08846900   -0.15469900
Se    3.67284000    1.27485000    5.70917000     -0.176525   -0.93067800    0.22544500
Se    7.62069000    3.01366000   14.48156000     -0.698585   -0.20365700   -0.15685500
Se    1.38455000    7.55420000    1.91149000      0.112707    0.16717400    1.12361800
Se    5.12481000    7.54528000   11.13343000      0.264928   -0.77239600    0.79920800
Se    1.40227000   15.33809000    2.21261000     -0.129656    0.12710800   -0.53060300
Se    6.21378000   14.74906000   14.58932000     -0.357607    0.22611400   -0.19936400
Se    4.69021000   17.37723000    3.15792000      0.217928   -0.45565800   -0.46380600
Se    5.25952000   18.22562000   11.92161000      1.249609   -0.84598200    0.68182000
Se    9.27832000    1.23792000    2.26703000      0.095615   -0.82983500    0.28338200
Se   10.42144000    1.11578000   16.38522000     -0.243878   -0.46262400    0.55366300
Se   10.23745000    8.74559000    2.85171000      0.029355   -0.29371000    0.59167200
Se    7.50515000    6.46763000   14.97653000      0.223983    0.40161400   -0.84100400
Se   11.01284000   11.67205000    4.23668000     -0.246751    0.85903200   -0.47800000
Se   10.88967000   11.51277000   12.36585000     -2.498223    0.92099300    0.97255600
Se    8.02352000   19.85530000    1.77586000      0.951951   -0.23722200   -1.33595900
Se   16.55969000   18.10580000   12.71042000      0.123458    0.57832600    0.01624100
Se   13.30832000    3.52350000    6.39149000      0.718779    0.20356700   -0.22182800
Se   15.92313000    1.11172000   16.35199000     -0.435512    0.68859500   -0.02775300
Se   16.53593000    5.34075000    4.54398000     -0.152711    0.26103400    0.41538600
Se   12.68271000   10.58244000   11.55877000      2.215100   -1.46622400   -0.81092100
Se   16.47227000   11.44989000    2.25298000     -0.576294    0.35286100    0.83664900
Se   17.58624000   12.89429000   16.28754000      0.480387   -0.31302200   -0.12111100
Se   16.32817000   16.31692000    2.44789000      0.133470   -0.63724500   -0.27318200
Se   14.65691000   21.52826000   12.42272000     -0.061975    1.40014200   -0.28681400
Se    0.12686000   19.50839000    7.38658000     -0.368184    0.07811600    0.50802300
Se   20.98488000    1.25130000   13.32363000      0.199126    0.34182900   -0.70775400
Se   21.36326000    6.47247000    4.30430000      0.298402   -0.27894900   -0.44105100
Se   20.36788000    8.54622000   14.47516000     -0.717956    1.26842400   -0.76767700
Se    1.14166000   14.37782000    5.42316000     -1.955517    0.72001100    0.92638700
Se    1.75468000   14.39489000   14.81802000     -0.104458    0.49966100   -0.66487800
Se   20.52800000   17.85894000    3.68722000      0.779485    0.75683800   -0.01970000
Se   21.35326000   21.16765000   10.70471000     -0.279582   -0.05930800   -0.46327500
Se    2.77697000    4.25465000    2.80256000     -0.038129   -0.75888100    1.16567000
Se    1.92982000    3.67932000   11.02610000     -0.376676   -0.13945500   -0.31818800
Se   22.11523000   10.64421000    1.33857000      0.238624    0.20703300   -1.39521400
Se    0.98258000    8.86147000   12.14539000     -0.357273    1.21865800    0.24025100
Se    0.69042000   16.75993000   17.62961000     -0.010202   -0.49944900    0.36793800
Se    4.42038000   16.14033000   13.64303000      0.084281   -0.79077500   -0.21439400
Se    1.29894000   20.89904000    3.69178000      0.982881    0.10293000    0.49284900
Se    4.76213000   20.63507000   14.37586000      0.560905   -0.05813800    0.11732500
Se    6.43364000    2.42501000    3.33705000      0.035605    1.49265100    0.89056500
Se   10.10424000    3.77589000   14.71447000     -0.180217   -0.37770600   -0.01973500
Se    5.10529000    5.74390000    5.15090000     -0.846434   -0.17866100    0.13088400
Se    7.82257000   10.74724000   15.25234000      0.111522    1.02107700    0.48187000
Se    6.99536000   14.42397000    0.72877000     -0.165811    0.21158900    0.33514500
Se   10.90404000   14.54602000   11.14440000      1.197977    0.62247600    0.04150900
Se    6.27576000   20.55474000    6.60045000     -0.905426    0.54016100   -0.34369900
Se   10.27197000   20.68478000   14.06143000      0.289662    0.15433700   -0.52580000
Se   12.48060000    3.12433000    2.69682000      0.300523    2.18428200    0.47904100
Se   14.30349000    7.14623000   11.21570000     -0.310514   -0.17543500   -0.18015500
Se   13.47470000    6.89231000    2.58149000     -0.048067    0.79441800   -0.86024700
Se   11.39543000    9.74975000   14.56291000     -0.001455    0.00215600    0.02557300
Se    8.73376000   14.87181000    4.23927000     -0.025525   -0.58392200    0.65046500
Se   14.95618000   13.51105000   10.82613000     -0.410294    0.27398600   -0.07171400
Se   14.52683000   20.28474000    3.60895000      0.825298    1.10542700   -0.83159200
Se   13.77207000   19.69650000   13.36808000     -0.566171   -1.29615300    0.06236800
Se   18.65928000    5.74958000    1.86372000      0.364169    1.00462300    0.34622900
Se   15.51123000    5.91831000   14.75757000     -0.141951    0.58749300    0.27125000
Se   19.77779000    8.89446000    4.05027000     -0.212260    0.11548900    0.26571400
Se   18.70765000   13.66353000    9.51592000      0.943094    0.07989800    0.82013600
Se   21.57226000   14.30713000    1.92753000      0.351438    0.64747100    0.00915300
Se   17.56989000   17.08233000    9.86599000     -0.215850   -0.61221300   -0.11489100
Se   17.13703000    0.46222000    3.89565000      0.632752    0.52311900   -0.39458800
Se   16.00003000    1.69338000   11.24089000     -0.008160   -0.11742400   -0.38415800
