384
22.54784000 22.54784000 18.93360000
Ge    5.85500000    4.21028000    8.80422000     -0.621576    0.56427100    0.38678200
Ge    4.44501000    8.02576000    3.18306000      0.008514   -0.75590600   -0.18703800
Ge    2.18401000   12.51711000    6.52555000      0.792358   -1.16968000    1.10282600
Ge    6.81810000    8.65727000   16.10567000     -0.341679   -0.72486800    0.91062000
Ge    3.24554000   13.86883000   10.54262000      0.139872   -0.51774900    0.01089900
Ge    8.47340000   17.87795000    0.06424000      0.372104   -0.02277700   -0.01034800
Ge    6.37542000   18.40602000    7.85038000      0.791631    0.15085500   -0.13364400
Ge    4.46398000    3.60223000   15.64922000      0.642139   -0.39544400    0.23222800
Ge    9.28597000    7.46127000    8.68513000     -0.042386   -0.32918800    0.21651700
Ge   11.06751000    6.64730000    1.58302000     -0.493446    0.41520700   -0.39772500
Ge   11.84077000    8.07637000    9.62984000      0.209705   -0.41220500   -0.71129500
Ge   10.36311000   12.22840000    0.52615000     -0.190992    0.25604100   -0.33560400
Ge   11.06369000   18.28279000    9.51675000     -0.278448   -0.58763100   -1.25395900
Ge   12.54569000   15.74177000    0.63986000     -0.146133   -0.27631600    0.11347100
Ge    8.95816000   21.29155000   10.74373000      1.189204   -1.30884900    1.43156900
Ge   13.67635000    1.64583000    1.30316000     -0.788109   -1.94822100   -0.79580200
Ge   18.98348000    5.49374000    9.89700000     -0.839449   -0.18204300    0.30241700
Ge   18.23448000    7.34153000   18.37781000     -0.958044   -0.51625900   -0.11461900
Ge   16.89495000   14.83007000   10.85777000      0.042150    0.99690900   -0.01870600
Ge   17.42509000   10.59762000   17.94554000     -0.068656    0.44066200   -0.39493100
Ge   12.73734000   14.52608000    8.80882000      0.656885    0.09109600    2.16877400
Ge   17.45447000   15.42879000   17.10581000     -0.056310    0.33277700    0.71009100
Ge   14.37381000    3.73817000   11.58791000      0.610353   -0.04179100    0.38859900
Ge   18.67110000    2.37368000   17.73341000     -0.349855    0.78951500    0.43175800
Ge    0.43557000    6.58826000    9.39921000     -0.597048   -0.75564200    0.99736000
Ge   20.12736000    3.71281000    4.68495000      0.975595    0.20632500   -0.03225600
Ge   21.72083000   10.74311000    9.74076000      0.147016    0.20434900    0.15656500
Ge   20.68098000    8.97571000   18.75334000     -1.159307    0.48282900    0.13289500
Ge   20.25690000   14.25022000    6.96820000     -0.636138    0.51416000   -0.35224200
Ge    5.23145000   14.50121000   16.96130000      0.401412    0.41805800    0.62224200
Ge   17.68423000   21.90397000    6.60442000     -0.025174    0.15085900    0.05929500
Ge   21.99892000   19.95290000    5.19921000     -0.546506   -0.04915400   -1.70796400
Ge    4.08156000    7.82175000    6.83081000     -0.513989    0.16489500   -0.27478400
Ge    1.53194000    7.66268000   18.48473000     -0.376057    0.29719500    0.27781000
Ge   20.98845000   10.85935000    3.28766000      0.143576    1.05200800    0.38469300
Ge    4.51446000   12.02966000   14.34212000      0.706229    0.24791900   -0.90339100
Ge    3.47725000   15.17090000    4.89525000      1.337074    0.23317400   -0.03394400
Ge    1.06700000   20.99983000    1.13353000     -0.358390   -0.18155700   -0.12429800
Ge    3.19949000   18.36187000   10.68292000     -1.204430   -0.04859700    0.48531200
Ge    0.48991000    1.74068000   16.87779000     -0.542677    0.60740100    0.57983700
Ge   10.20587000    2.08475000    8.75119000     -0.441450    0.73032300   -0.59854700
Ge    6.57523000    5.17297000   16.79220000     -1.050950   -0.06138500   -0.20173600
Ge    8.31340000    8.27675000    4.52664000      0.137764   -0.66145000    0.81533500
Ge   10.70606000    6.74520000   16.19789000     -0.039135   -0.23039800    0.18915700
Ge    6.83589000   16.39998000    9.52772000      0.300323   -0.66763200   -0.49770900
Ge   10.93030000   15.32862000   16.97953000     -0.722094   -0.91627500   -0.44293000
Ge    9.64212000   21.80568000    6.76790000      0.181480   -0.78827200    0.59130800
Ge   10.98887000    1.28008000   13.81291000      0.421430   -0.01693300   -0.31402400
Ge   11.46496000    7.71470000    5.57412000      0.755216    0.17455300   -0.28750100
Ge   15.56133000    3.86397000   16.96237000      1.578004   -0.31580100    0.42623200
Ge   15.92686000    8.54619000    6.86749000     -0.959481    0.88434600   -0.87983400
Ge   15.30312000   12.66957000   15.64467000      1.166282    2.19343600   -0.87349100
Ge   12.20129000   14.00399000    6.41436000     -0.093866   -0.22323300   -1.07149600
Ge   15.63975000   19.35905000   17.95191000      0.495655   -1.46848000    0.83543900
Ge   13.82156000   21.22368000    8.00328000      0.208409   -0.14614000    0.36521600
Ge   19.05029000   21.83825000   13.62081000     -0.256131   -0.03768400    0.12980200
Ge   21.92764000    4.35334000    8.49036000      0.773251   -0.53041700   -1.06473000
Ge   21.04709000    5.97246000   14.22759000     -1.186593   -1.40999100   -0.62584400
Ge   18.58422000   10.84566000    7.37032000      0.520617    0.16921200    0.93220600
Ge    0.01341000   14.51763000   16.56713000      1.097999    1.12113400   -0.35910400
Ge   17.15012000   16.29879000    6.06244000      0.264758   -0.74234500    0.21286600
Ge   17.17317000   18.31953000   15.30666000     -0.221007    0.28492200   -0.16024900
Ge   21.24059000    0.37368000    6.28624000     -0.347129    0.70847100   -0.34541100
Ge   18.50728000   21.86538000   17.16360000     -0.149975    0.12403200   -0.51537800
Ge    6.39505000    0.57954000    7.07098000     -0.219124    0.40796100   -0.21828300
Ge    3.59495000    2.19233000   12.45738000     -0.708504    0.57613700   -0.70786900
Ge    0.24496000   10.67225000    5.00327000      0.287442    0.71484000    0.69029500
Ge    2.73976000    7.32261000   10.19491000      0.693179    0.03110300    0.25682100
Ge    0.32984000   17.00075000    3.95084000      1.069005   -0.12562700   -0.01996400
Ge    3.90434000   17.84775000   15.41941000     -0.442166    0.54863400    0.74262600
Ge    5.27627000   21.66008000    9.65126000      0.317590   -0.11929900   -0.34464600
Ge    8.25094000   20.10261000   16.00674000      1.129106   -0.16586700    0.36408400
Ge    5.06374000    5.36424000    1.39503000      0.411462    0.29942300    0.14344300
Ge    9.73393000    3.51435000   17.62325000      0.566899    0.29234200   -0.14875200
Ge    7.09439000    4.26956000    5.23126000     -0.024954    0.29426300   -0.41912700
Ge    8.85156000    9.64577000   13.15529000      1.413106   -0.15065700    0.04452000
Ge    5.09850000   14.41608000    2.42679000      1.244592    0.91005000    2.03277200
Ge    9.92567000   11.07735000   16.52819000      0.512143   -0.14642000    0.19483400
Ge    7.23499000   20.54208000    4.08860000     -0.813065   -0.00677900    0.71826600
Ge    9.65973000   15.89069000   13.06048000     -0.801401    0.19015000    0.17504800
Ge   12.14203000    1.89816000    4.91013000     -0.589219   -0.65264600    0.68304000
Ge   13.71302000    4.14316000   15.26900000     -1.194121    0.27816600   -0.21326600
Ge   17.74191000    3.85905000    6.68782000      0.370181    0.01407100   -0.46658400
Ge   15.05349000    9.62383000   15.29264000      0.253314   -0.69712000    1.13457200
Ge   14.56778000   13.27968000    3.05252000      0.540703    0.53139100    0.10939700
Ge   13.29184000   15.59785000   12.67236000      0.771746   -1.18648700   -0.36073300
Ge    9.62069000   18.50048000    4.76539000     -0.071648    0.15760400    0.15523300
Ge   11.92150000   20.29501000   16.11914000      0.062984    0.33281500    0.47844700
Ge    0.98193000    6.56222000    6.30371000      0.346983   -0.93935400   -1.63849300
Ge   22.34684000    3.78236000   12.29953000     -0.661866    0.18800800    0.28803700
Ge   20.29783000    8.44286000    7.22951000     -0.133963   -0.20853600    0.27086000
Ge   17.18531000   11.81344000   11.92242000     -0.677267   -0.55439000    0.16690400
Ge   21.53178000   17.00520000    0.75855000      0.288581    0.04077700   -0.14168000
Ge   19.41123000   15.14665000   13.94676000      0.033856    0.05023600   -0.51638100
Ge   18.69726000   19.98239000    4.74761000      0.113671    0.11222600    0.23506900
Ge   21.85852000   20.44106000   12.88698000      0.154099   -1.57661800    0.44680100
Ge    3.18620000    1.62957000    3.01843000      0.075112    0.26403000   -0.29001500
Ge    5.95537000    1.49012000   11.77641000      0.285722   -1.00362800   -0.28620300
Ge    6.09295000    9.68708000    4.33253000     -1.226660   -0.57803800    0.33682100
Ge    6.92149000    4.72451000   12.69486000      0.388015    0.26127300    0.01985200
Ge    5.42191000   12.06606000   18.84895000      0.329195   -0.63078700   -0.20902800
Ge    4.58041000   10.19665000   11.45402000     -0.237754   -0.34270800    0.40482400
Ge    2.57824000    0.34196000    8.54156000      0.800315   -0.01176800   -1.01281200
Ge    7.22892000   18.94818000   13.89308000      0.216208   -0.35028300    0.03223500
Ge    8.59695000    4.07256000    3.03914000     -0.133094   -0.05624500    0.10557800
Ge    9.62684000    4.30938000   11.48729000      0.399916    0.03305700   -0.08431400
Ge   12.64689000    9.57433000    2.21104000      0.313065    0.61857700   -0.00775600
Ge   12.35218000    7.81090000   12.70468000     -1.417280    0.03046800   -1.41948200
Ge    9.05398000   14.27756000    1.91836000      0.688363    0.23578900   -0.43389200
Ge    9.00888000   13.45866000   10.19678000     -1.336368    1.10468600    0.53198100
Ge   10.48723000   21.32539000    1.86465000     -0.543351    0.14895500   -0.85281100
Ge   11.45016000   19.06142000   12.46752000     -0.543777    1.11432800   -0.08961600
Ge    0.06557000   21.65176000   16.31631000      0.326161   -0.68221500    0.03829400
Ge   13.52633000    0.93308000   10.08991000      0.307211    0.75758400    0.00911800
Ge   16.55343000    7.04895000    2.33465000     -0.475636   -0.15227500   -0.02306900
Ge   16.32823000    7.12317000   12.70466000      0.122172   -0.44452900   -0.26535400
Ge   18.27321000   13.08788000    1.24018000      0.369013   -1.96240000    0.15952900
Ge   15.21435000   16.65295000    8.31966000      0.227981    0.45235100   -0.47547600
Ge   16.65485000   21.39659000    2.08293000     -0.046230   -1.12729500    1.20785100
Ge   16.47088000   20.27974000   11.21856000      0.671772   -0.20438900   -0.01821000
Ge   19.33536000    1.65582000    3.06822000     -0.341467   -0.02463100   -0.22430800
Ge    0.08598000    1.26750000   10.60924000     -0.272921    0.16785600    1.21754000
Ge   21.24218000    7.85004000    2.18909000      0.938376   -0.35844800    0.14622300
Ge    0.24227000    8.54812000   14.58774000      1.470775    0.33837800   -0.21954600
Ge   20.65249000   12.93226000   18.71610000      0.396590   -0.96561600    0.30687200
Ge    0.15214000   15.65455000    9.97374000      0.677541   -0.68778900   -0.35806900
Ge    3.50753000   21.16404000    5.66032000      0.476806    0.55272500   -0.34507900
Ge   19.10797000   17.99319000   11.88800000     -0.068270   -0.12777300   -0.29754200
Se   20.28485000    0.36870000    1.08032000     -0.154181    0.97444900   -0.60487400
Se    0.27082000    0.44147000    8.35694000     -0.336991    0.07437000   -0.47412200
Se    4.60604000   11.69730000    3.99987000     -0.043594    0.03017400    0.17482000
Se    0.87088000    6.21305000   14.01005000      0.697478    0.68031000    0.35849900
Se    0.22948000   12.40102000   17.40771000      0.223352   -0.02891900    0.81948200
Se    1.17840000   13.06213000    9.29375000     -0.416545   -0.18260700   -0.05591400
Se    2.44599000   18.33309000    4.58649000     -0.521596    0.06716300    0.06674700
Se    2.16392000   15.93386000   11.60605000      0.002244    0.36367800   -0.29527600
Se    3.76940000    2.08751000    0.04677000      0.334503   -0.20101300    0.34220100
Se    7.38267000    3.00237000   10.47400000      0.246880    0.71373600    0.07522600
Se    7.11882000    6.47040000    2.66244000      0.156265   -0.15483100   -0.03756200
Se    9.60638000    7.65714000   12.00034000      0.051468   -0.26873300   -0.20522000
Se    7.61924000   10.43540000    1.28136000     -0.098767   -0.43949100   -1.07343600
Se    6.89879000   10.99009000   12.33859000     -0.848234    1.03504200    0.90260900
Se    4.50962000   20.43164000    3.46844000      1.048688    0.13560400   -0.26733100
Se    9.22684000   18.26323000   11.25562000     -0.172287   -0.48553300    0.91257900
Se   10.69444000    2.52789000    1.05732000      0.091391   -0.13777800   -0.53516000
Se   13.68532000    2.21736000   13.63561000     -0.521291   -0.58230700    0.02577500
Se   11.38697000    8.75973000   18.91345000      0.527325   -0.51489500   -0.08839100
Se   10.24011000   11.57592000    9.49987000      0.660311   -1.14014400   -0.48091100
Se   12.98512000   15.22231000    3.13194000     -0.074020    0.59632700   -0.29753500
Se   10.74279000   10.72106000    6.36702000      1.237899   -1.09113000    1.34948500
Se   14.53618000   18.69080000    1.27097000     -0.275679   -0.45187300   -0.24742300
Se   13.31009000   16.99105000    9.91430000      0.240931   -0.45717500    0.37736500
Se   17.90791000    3.54718000    1.67469000      0.458649   -0.65507700    0.33134700
Se   16.92883000    1.56634000   13.73652000      0.081372   -0.01462800   -0.60130100
Se   15.42986000    6.53632000   18.40045000      0.403497   -0.34746100    0.61746000
Se   17.53197000    4.95933000   12.46704000      0.529186    0.23825700   -0.45673700
Se   18.09703000    9.41014000    1.10802000      0.363701   -0.67459100    0.49123000
Se   16.01875000   13.48423000    5.14937000     -0.077359   -0.01031800    0.24589300
Se   20.59796000   19.91295000    0.93326000     -0.003200   -0.04982100    0.78425800
Se   17.45464000   19.91209000    8.64374000      0.588421   -0.30269300    0.14379700
Se    0.65381000    0.58795000    2.63427000      0.620030   -0.18236700    0.03478000
Se    6.61471000    6.92099000    9.27411000      0.576840   -0.62275500   -0.70610500
Se    7.58741000   11.31285000    3.33496000      0.728324    1.13731300    0.16871500
Se    5.30413000   10.43242000    9.16659000     -0.103701    0.48582500   -0.08088200
Se    3.78211000   13.71927000    0.73900000     -2.258978   -0.70314400   -1.36653000
Se    2.80411000   11.76070000   12.40916000     -0.076303    0.50196500    0.15639000
Se    2.54886000   21.97704000   18.27929000      0.263989    0.13734700    0.38077500
Se    6.62877000   19.49255000   10.40584000     -0.188193    1.27003100   -0.47972300
Se   13.25125000    5.86116000    4.60814000     -1.069072    0.01377400    1.21418200
Se    7.62726000    3.37313000    7.39607000     -0.059536   -0.33196200    0.04505500
Se   12.56822000   12.15779000    2.00954000     -1.105731   -1.17508900   -0.10965200
Se    7.71260000   10.44239000   10.34852000      0.813905   -0.00744800   -2.57387100
Se   10.06263000   16.69334000    1.68255000     -0.257514   -0.52093900    0.00454300
Se   12.74236000   13.18741000   14.14996000     -0.965863    0.82837300   -0.54981900
Se    9.73156000   21.65920000   17.66463000      0.256952    0.34231200   -0.76417700
Se    7.48930000   22.15932000   12.83444000      0.943237   -0.68553000   -1.06352100
Se   14.85852000    4.96826000    1.32624000     -0.103268    0.74738500   -0.32002600
Se   16.30072000    6.03811000    9.51627000     -0.052901    1.66454900   -0.33354100
Se   15.01043000   11.33372000    0.39631000      0.654175   -0.99795900   -0.08192100
Se   14.97479000   11.24928000   13.62877000      0.268351    1.28186300   -0.89004100
Se   18.45884000   15.35570000    0.90259000     -0.499046    1.72600700   -0.14762000
Se   15.62889000   10.89352000   10.01042000     -0.080487    0.72952400   -0.06898400
Se   16.20145000   21.58685000   18.54551000      0.152401    1.23499600   -0.30214100
Se   15.60718000   19.24576000    7.31366000     -0.342581   -0.71330800    0.04465600
Se   22.16072000    4.41133000    2.40974000     -0.713055   -0.02785000    0.34806000
Se   21.34804000    7.06567000   11.39367000     -0.251781   -0.09200900   -0.91408200
Se   20.99952000    5.68818000    0.67288000      1.123885   -0.59732600   -0.53161400
Se   21.54748000   10.48917000   12.61230000      0.706036    0.05352900   -1.30308500
Se   20.36697000   15.07835000   17.37614000     -1.532055    0.22151400    0.75786500
Se   20.41252000   15.68671000   11.76789000     -0.526067   -0.04487500    1.17272200
Se   20.47960000   21.66950000    4.07885000     -0.215608   -0.12212000    0.03980700
Se   18.70154000   21.66501000   10.97264000     -0.654321   -0.48089800    0.82468100
Se    3.05816000    5.98355000    7.98555000      0.174531   -0.77364900    0.68454000
Se   21.04718000    2.65067000   18.77408000     -0.133760   -1.20793300    0.10690800
Se    2.99594000    9.41160000    8.84334000      0.052595    0.59036200   -0.44948300
Se    0.18060000    9.50529000   17.57619000      1.572631   -0.40903900   -1.03239700
Se    4.09055000   17.69346000    8.55713000     -0.372289   -0.46649200   -1.14095100
Se    1.16631000   17.89505000   15.16317000      0.243677    0.03246400    0.08306600
Se    0.59483000   18.26040000   12.90426000     -0.226282    0.30498600   -0.93104100
Se    2.31556000   20.17583000   16.70150000     -1.175018    0.37429600    0.04161500
Se    2.60391000    4.42275000    5.26775000      0.742215    0.23779500   -0.80884100
Se    5.65928000    7.22450000   18.49043000     -0.349175   -0.49989000   -0.32226200
Se    6.12150000    9.06305000    6.75690000      0.531868    0.14462900   -0.34709500
Se    3.48180000    7.00416000   17.34985000      0.788151   -0.14209900   -0.42974400
Se    6.82614000   14.78494000   11.25216000      0.760041   -0.82445700    1.20276800
Se    5.77964000   17.52754000   18.23176000      0.950880    0.43159500    0.32966000
Se    9.17038000   19.22850000    7.25010000      0.146877    0.15293900   -0.23061200
Se    5.86076000   19.73152000   16.79769000     -0.371475   -0.55467100    0.67761000
Se   10.45883000    1.74341000   11.14536000      0.657987   -0.13865200    1.01733400
Se   12.44503000    5.01224000   17.44054000     -0.570060    0.12945900   -0.28410600
Se   13.21974000    7.95186000    7.40813000     -0.519759   -0.12178700    0.77133100
Se   14.05140000   11.28718000   16.88287000     -1.707462   -2.14658800    0.34460500
Se   10.83007000   15.66631000    7.75072000     -1.217760    0.58348200   -0.86527400
Se   14.62165000   16.23446000   18.01743000      0.381076   -0.12025200    0.22202500
Se   11.71794000    0.48487000    7.53010000      0.549133   -0.39481700   -0.33133100
Se   12.96346000   21.40589000   18.24257000     -0.119043    0.40244500   -0.25125100
Se   13.55788000    3.39177000    9.27779000     -0.353178   -0.80324500    0.12353800
Se   21.72903000    3.38320000   15.52430000     -0.382220   -0.12415400    0.28582500
Se   19.31544000   11.37529000   10.45266000      0.224634    0.33362300   -0.30490500
Se   17.35862000    9.08915000   15.89821000     -0.630957   -0.14017900    1.11041400
Se   13.58446000   16.02680000    6.10975000      0.344995    0.00132800   -0.02206000
Se   20.53249000   13.07728000   14.70392000     -0.336391   -0.20042300    0.18793100
Se   20.03086000   19.92533000    7.56546000      0.259603    0.37788300   -0.12618900
Se   18.36939000   19.24257000    2.19486000     -0.102389    0.78943600   -0.20725400
Se    4.16656000    1.92746000    9.37652000      0.453292    0.54242300   -0.31998400
Se    1.77126000    3.18564000   18.63566000      0.106813   -0.09487500   -0.01353800
Se    8.68001000    9.85984000    7.14124000     -0.431064   -0.13034900   -0.43201800
Se    4.67791000    9.76166000    1.47723000     -0.148571    0.67707300   -0.57660700
Se    6.51331000   16.57865000    6.13833000      0.038234   -0.19717600   -0.69611800
Se    4.01302000   10.25232000   17.38266000      0.151248    0.72212100    0.57628200
Se    0.75301000   18.72160000    9.82065000     -0.539326    0.18528500    0.51290600
Se    1.52477000   18.01910000    1.30769000     -0.942769   -0.54521400    0.22979400
Se    8.30223000    0.02197000    8.96087000     -0.245812    1.03409600   -1.93332500
Se    6.93895000    3.45741000    0.80682000     -0.026166   -0.02103200    0.00955500
Se   10.74713000    5.20800000    9.42845000     -0.305027    0.33566400   -0.03357000
Se    8.35479000    5.73207000   18.25616000      1.554984    0.24219400    0.56028800
Se    8.98470000   12.82651000    5.47448000      0.048073    0.38617600    0.07374400
Se    8.56627000   13.66130000   17.44465000      0.300848    0.33477100   -0.40528800
Se   11.74999000   20.51229000   10.18074000     -0.037097    0.79980900    0.27750700
Se   12.10661000   13.24958000   17.84562000     -0.355937    0.76746700    1.09627700
Se   15.79940000    0.30631000    7.89092000     -0.594205    0.39642800   -0.26263200
Se   15.64531000    2.72075000    0.44958000      0.611175    0.05571900   -0.35572500
Se   16.87845000    3.89990000    9.04337000      0.603708   -1.74556400   -0.22112400
Se   13.54279000    7.75268000   14.73947000      0.865882   -0.32540300    2.33239300
Se   16.63224000    8.98086000    9.14740000      1.002987   -0.97267800    0.39633500
Se   15.16004000   13.83743000   18.83506000     -0.025568    1.02272200    0.09476200
Se   12.46017000   18.56692000    4.82986000     -0.425135   -0.71353800    0.11859000
Se   17.93104000   17.98629000   18.03370000     -1.259147    1.09720000   -0.18381900
Se   20.68761000    3.20406000   10.19978000      0.202087   -0.63845300    0.63123900
Se    0.49899000   22.33539000   13.62233000      0.246575   -0.08455200    0.63488500
Se   19.66692000    8.21451000    9.90582000      0.331617    0.23786400   -0.00368100
Se    0.43295000    5.65758000   17.92426000     -0.736644   -0.31986500   -0.37962400
Se   21.07621000   11.66880000    6.94386000      0.428579   -0.96597800   -0.06543800
Se   19.77440000   10.76557000   17.04982000      0.278470    0.13825300    0.82686400
Se   19.59856000   16.73282000    7.09257000     -0.407999    0.17879100   -0.23257700
Se   19.86005000   16.94964000   15.64228000     -0.315152   -0.15794800   -0.81695700
Se    3.14982000   22.06454000   11.02423000     -0.177812    0.86195100    1.04764800
Se    2.09157000    1.82750000   14.41965000      0.681756   -0.28785700    0.81015700
Se    0.40389000    8.39712000    7.76988000     -1.439315    1.71448400    0.42507300
Se    1.89487000   10.05312000   15.60547000      0.036205   -0.37012300   -0.09761500
Se    3.39914000   15.27198000    7.52248000     -0.307551    0.03545700    0.53231900
Se    3.47566000   12.80219000   16.39573000     -1.315894   -0.55901800    0.22884800
Se    0.65837000   16.31120000    7.66629000      0.417170   -0.44169400   -0.79419100
Se    2.88715000   20.74923000   12.98977000     -0.044015   -0.67195300    0.43120500
Se    6.00276000    0.10509000    2.27627000     -1.120280   -0.37906600    1.10330300
Se    6.42370000   21.61267000    0.37622000      0.461567   -0.71681000   -1.18500700
Se    9.42400000    6.45784000    6.23574000     -0.305445   -0.01719700   -0.13400700
Se    4.45507000    4.59985000   13.32125000      0.221605   -0.25064300   -0.15894300
Se    5.20664000   12.94361000    6.09735000     -0.842517   -0.02361200   -0.63011200
Se    9.94754000   13.57968000   15.23453000      0.208112    0.72788100   -0.19047200
Se    6.94739000   17.43217000    3.83297000     -0.310267    0.19852800    0.48631800
Se    8.29826000   17.00557000   15.25781000     -0.450763    0.41382100   -0.58300400
Se   13.72338000    0.06475000    3.35200000     -0.131917   -0.53810200    0.23225000
Se   13.37908000    0.77386000   16.15651000      0.370675   -0.35271100    0.87729500
Se   14.47139000    9.73780000    4.18785000     -0.321224   -0.58538500   -0.26045000
Se   11.90050000    5.11555000   13.69112000      0.437988    0.95335300   -0.28264300
Se   13.88749000   11.72498000    5.23027000      0.483087    0.62821700    0.19382100
Se   13.91291000   14.92033000   15.38956000      0.137837   -0.52277400    0.12122800
Se   12.41604000   19.05705000    7.06918000      0.350981    0.63460800    0.16632300
Se   12.26208000   18.96472000    0.58016000      0.150204    0.20210800   -0.16731300
Se   19.04836000    1.44378000    7.01466000      0.066114   -0.09049900    0.08683800
Se   19.83599000    1.34358000   15.85641000      0.569188   -0.76863900   -0.04784900
Se   20.00328000    5.19078000    7.24202000     -0.524013    0.86150200    0.19576200
Se   19.98674000    7.08492000   16.20959000      0.033794   -0.86741400    1.26643800
Se   19.39202000   12.63663000    3.53683000     -0.234654    0.53350400   -0.44014300
Se   17.02443000   14.72367000   13.26137000      0.438159   -0.07229100    0.58897600
Se   16.46007000   17.81510000    4.15189000      0.042343    0.71574100    0.22905200
Se   17.05284000   20.88188000   14.98109000      0.446346   -0.25998800    0.58615800
Se    2.49252000    8.48438000    5.02880000     -0.031519   -0.36589000    0.28098400
Se    3.84797000    7.49284000   13.57238000      0.243043    0.84163000    0.34391100
Se    1.58843000   12.77530000    3.60132000      0.101657   -0.73116300    0.02911400
Se    5.25742000    9.46170000   14.27130000     -1.450294   -1.08227300   -0.35542300
Se    5.56639000   14.33542000    8.49447000     -0.107338    0.32659100   -0.00629200
Se    3.65277000   16.60197000   18.09373000     -0.154137   -0.18229800   -1.16649300
Se    3.19974000   20.51626000    8.24291000      0.236891    0.05115900    0.33974800
Se    6.34494000    0.80064000   14.40971000     -1.031157    0.79023900    1.54831000
Se    8.36539000    0.64522000    5.27602000     -0.528955    0.06091400   -0.30979800
Se    7.50879000    2.43496000   17.62439000     -0.608137   -0.53383600   -0.15334900
Se   12.70766000   11.39862000    9.17315000     -0.432081   -0.05615800    0.05403300
Se    9.24429000    8.75089000   17.51441000      0.014485   -0.18948900    0.36401600
Se    8.54888000   14.67919000    8.11698000     -0.025491    0.61270700   -0.13357100
Se   11.77099000   17.03667000   13.89734000     -0.490390    0.06664500    1.20669500
Se   10.75679000   20.73414000    4.21327000      0.028172    0.02712900    0.94152000
Se   10.38866000   18.49314000   17.14906000     -0.946266   -0.02594200   -0.01196700
Se   10.20152000    3.25528000    5.66896000      0.062104    0.03334600   -0.48739400
Se   18.02764000    4.51135000   16.31631000     -0.600459   -0.63582700    0.96809200
Se   17.65587000    7.19104000    5.96728000      0.826644   -0.36103800   -0.02162200
Se   17.28879000    9.27078000   13.13113000      0.365781   -0.33149500   -0.91603700
Se   17.54904000   10.46553000    5.34373000     -0.724025   -0.29934100   -0.72550600
Se   14.40559000   18.99110000   15.95866000      0.271257   -0.21783000   -0.17927400
Se   14.99733000    3.33106000    4.52635000      0.034311   -0.40759700    0.05994900
Se   18.86600000    2.76551000   13.03041000     -0.268091    0.38501900   -0.08078000
Se   22.33040000    2.84360000    5.68185000     -0.517060   -0.44686000   -0.07486100
Se    2.05795000    4.07012000   15.14761000     -0.348558    0.33037000    0.73390400
Se   17.39786000   13.27194000    7.56309000      0.125799    0.06382900   -0.50466300
Se    0.07358000   12.89446000   13.66627000      0.731044   -0.31602300   -0.69158300
Se   19.28602000   15.61078000    4.77169000     -0.065607   -0.71390800    0.89427500
Se   20.32692000   19.60701000   14.59989000     -0.196316    0.63323300   -0.71549200
Se   20.84838000   17.38792000    9.70678000      0.239777    0.79280000   -0.70539600
Se   20.40713000   20.07506000   17.52055000      0.059100   -0.00111500   -0.40359300
Se    3.68138000    1.29083000    5.71460000     -0.142119   -0.89042700    0.21043600
Se    7.65437000    2.96684000   14.43840000     -0.616303    0.01215400   -0.08050000
Se    1.38071000    7.61371000    1.85521000      0.102416    0.21666000    0.91142100
Se    5.12568000    7.49278000   11.11229000      0.094565   -0.49302900    0.86004500
Se    1.43665000   15.32293000    2.18176000     -0.376493    0.40237500   -0.24347000
Se    6.23522000   14.67998000   14.61243000     -0.343673    0.40785000   -0.40655200
Se    4.68652000   17.28410000    3.12218000      0.108001   -0.34731200   -0.55532900
Se    5.30368000   18.18737000   11.93582000      0.995193   -0.83255600    0.66537000
Se    9.20429000    1.20228000    2.27268000      0.465765   -0.59973500    0.03545300
Se   10.43022000    1.12636000   16.37524000     -0.288556   -0.34284800    0.57499400
Se   10.22186000    8.77908000    2.91828000      0.386289   -0.52290700    0.18759900
Se    7.50366000    6.49254000   14.98309000      0.466596    0.29603900   -0.96209900
Se   10.97947000   11.73670000    4.27524000     -0.217942    0.85262200   -1.03450200
Se   10.91201000   11.54577000   12.34617000     -2.484775    0.96908900    0.87856300
Se    7.98996000   19.81986000    1.79149000      1.030009   -0.26465900   -1.41630400
Se   16.52001000   18.12208000   12.71845000      0.334825    0.47227300   -0.00431100
Se   13.29161000    3.49178000    6.42397000      0.705189    0.15897500   -0.40914500
Se   15.92225000    1.16101000   16.38746000     -0.401784    0.46141700   -0.17190400
Se   16.49378000    5.37684000    4.60156000     -0.168258    0.04492400    0.28499300
Se   12.69670000   10.57259000   11.57882000      2.182300   -1.43264500   -1.09156300
Se   16.49009000   11.43602000    2.24158000     -0.269965    0.42835800    0.77796300
Se   17.61580000   12.89865000   16.27542000      0.012277   -0.37237400   -0.15872000
Se   16.39299000   16.28352000    2.46494000     -0.160577   -1.01632100   -0.57320000
Se   14.67212000   21.50633000   12.44698000      0.244143    1.85096800   -0.62633400
Se    0.13670000   19.51283000    7.35982000     -0.170783   -0.11165900    0.79248400
Se   21.02086000    1.28962000   13.27986000      0.220905    0.21397200   -0.80147600
Se   21.37042000    6.50247000    4.35507000      0.375725   -0.25832900   -0.57605700
Se   20.39563000    8.58153000   14.49829000     -0.596944    1.17381000   -0.93746700
Se    1.16087000   14.34249000    5.40944000     -1.979937    1.05557500    0.40348700
Se    1.79565000   14.42660000   14.78137000     -0.603089    0.30344200   -0.19411100
Se   20.57703000   17.83595000    3.66972000      0.486864    0.92171600    0.02076300
Se   21.35051000   21.18658000   10.74497000     -0.375648   -0.07407500   -0.82680900
Se    2.81741000    4.30040000    2.82934000     -0.247145   -0.80766500    0.84982600
Se    1.89630000    3.70585000   11.06437000     -0.153933   -0.18207000   -0.38926700
Se   22.14503000   10.72078000    1.27083000     -0.427405    0.21544600   -0.43872200
Se    0.98077000    8.85837000   12.18361000     -0.312657    1.32706600    0.29926900
Se    0.65165000   16.74464000   17.60218000      0.086838   -0.40754900    0.34391300
Se    4.44112000   16.15912000   13.65226000      0.131752   -0.88782400    0.03466600
Se    1.31546000   20.89045000    3.75053000      0.639970    0.17256900    0.17025800
Se    4.77663000   20.69040000   14.41680000      0.272764   -0.12840400   -0.12135100
Se    6.41554000    2.39505000    3.33582000      0.074406    1.59907500    1.00824700
Se   10.13869000    3.74793000   14.59817000     -0.122686   -0.16228500    0.20907800
Se    5.08607000    5.71413000    5.13843000     -0.692732   -0.17373200    0.19187400
Se    7.82250000   10.71216000   15.24457000      0.162240    1.15518500    0.29503300
Se    6.93458000   14.44537000    0.73004000      0.396868    0.20947700    0.08803000
Se   10.91606000   14.59210000   11.16208000      0.873972    0.26779200   -0.25945700
Se    6.22931000   20.55964000    6.63280000     -0.785138    0.45688300   -0.47915100
Se   10.27501000   20.76700000   14.07687000      0.172281   -0.01336700   -0.57435300
Se   12.51415000    3.15200000    2.69701000      0.084078    1.63626500    0.30106600
Se   14.34150000    7.15349000   11.26924000     -0.522659   -0.11633200   -0.35495600
Se   13.42785000    6.87324000    2.58427000      0.213294    1.00267500   -1.11079700
Se   11.37276000    9.75789000   14.55498000      0.077418   -0.00817000    0.27324100
Se    8.73488000   14.81821000    4.25566000     -0.119438    0.21102500    0.36964900
Se   14.94999000   13.48843000   10.85757000     -0.303590    0.36821200   -0.05771200
Se   14.52229000   20.23886000    3.58552000      0.782601    1.20446200   -0.82843900
Se   13.75079000   19.70091000   13.31077000     -0.750603   -1.79752300    0.55428500
Se   18.71641000    5.75794000    1.88678000     -0.379277    0.57125300    0.52978000
Se   15.51185000    5.87922000   14.78488000      0.026871    0.86400900   -0.14960500
Se   19.84146000    8.96948000    4.05233000     -0.778928   -0.58401200    0.58795500
Se   18.66289000   13.70346000    9.52178000      0.991250   -0.22514400    0.83475000
Se   21.57267000   14.34143000    2.00853000      0.346429    0.57607300    0.00041000
Se   17.55172000   17.09192000    9.86158000     -0.181679   -0.52433500   -0.18416200
Se   17.17934000    0.49096000    3.89615000      0.331372    0.39295800   -0.36705700
Se   16.03794000    1.73934000   11.24387000     -0.325673    0.01065100   -0.12977900
