384
22.54784000 22.54784000 18.93360000
Ge    5.73224000    4.43000000    8.95568000     -0.255310   -0.78883100   -0.55927500
Ge    4.54248000    7.42125000    3.41100000      0.033623    0.06972300   -0.47114900
Ge    2.53577000   12.58226000    6.73039000     -0.968066   -0.02307000    0.25032500
Ge    6.61772000    8.53411000   16.19087000      0.249880    0.80269900   -0.36298300
Ge    3.30833000   13.61063000   10.53054000     -0.472364   -0.07941000    0.38584300
Ge    8.45536000   18.17608000   18.76191000     -0.703327   -1.53211900    0.43735900
Ge    6.43252000   18.42433000    7.62252000     -0.108132    0.11926000    0.99622900
Ge    4.56434000    3.45708000   15.51182000      0.334811   -0.27069900    0.27860100
Ge    9.10786000    7.66101000    8.93760000      0.056005   -0.52229800   -0.37575200
Ge   10.90541000    6.61568000    1.31853000     -0.378253   -0.19139700    0.43038900
Ge   11.68357000    7.69350000    9.36309000     -0.352128    0.06003600    1.68456500
Ge   10.20204000   12.21908000    0.62217000     -0.836381    0.66877000   -0.69205000
Ge   10.86444000   18.56887000    9.21973000      1.270439   -0.37453300    1.00560100
Ge   12.61053000   15.37397000    0.55325000      0.474721    0.80028100    1.09771700
Ge    8.85204000   20.91675000   10.83278000     -0.106839    0.38872600   -0.29131700
Ge   13.65561000    1.21841000    1.19571000     -0.484113    0.75401200   -0.26388900
Ge   18.80205000    5.46150000    9.97360000     -0.672701   -0.48785000    0.27278800
Ge   18.01411000    6.95139000   18.68755000      0.489139   -0.12516300   -0.00291000
Ge   16.69306000   15.13641000   10.91530000      0.246445   -1.05046200    0.86806400
Ge   17.42092000   10.87573000   17.68971000      0.641950   -0.30062700    0.87541600
Ge   12.73694000   14.72661000    9.24938000      0.289313    0.38368800   -0.00158000
Ge   17.45759000   15.62463000   17.10185000     -0.244176    0.15953800   -0.25181200
Ge   14.22378000    3.94568000   11.65091000      0.353265   -0.64746600    0.01591300
Ge   18.58458000    2.54914000   17.60878000     -0.201218   -0.99868700    0.17785400
Ge   22.45066000    6.69992000    9.46946000      0.977209   -0.67752000   -1.28894000
Ge   20.17704000    3.72967000    4.69460000     -0.650996    0.70626700   -1.34242100
Ge   21.94418000   10.70348000    9.94530000     -0.095034    0.70400600   -0.85953200
Ge   20.61367000    9.03178000   18.62232000      0.055170   -0.40204400    0.31029100
Ge   20.00732000   14.19400000    6.94515000     -0.652935   -0.33780200   -0.26837300
Ge    5.19252000   14.39013000   17.04947000     -0.592789    0.26674000    0.35330700
Ge   17.53390000   21.90117000    6.44814000     -0.209817   -0.14822100   -0.18980400
Ge   21.59215000   20.07575000    5.10321000      1.718044   -0.83514400    0.24477000
Ge    3.90996000    7.90956000    6.91981000      0.935838    0.81830400    0.11825000
Ge    1.66245000    7.67827000   18.24374000      0.417687   -1.03379900    1.05335100
Ge   21.32025000   11.06077000    3.28803000     -0.272402   -0.50663000    0.46279800
Ge    4.95578000   12.07626000   14.31146000     -0.816199    0.53175600   -0.13742500
Ge    3.93648000   15.12012000    5.18838000     -0.250555   -0.13933600    0.16803200
Ge    0.85312000   21.21061000    1.06290000      0.690782   -0.10652500    0.25066700
Ge    3.10819000   18.30509000   10.79599000      0.779116   -0.14577300   -0.08622100
Ge    0.09624000    1.83896000   16.92245000      0.755899   -0.46542000    0.36549600
Ge   10.21187000    2.38156000    8.61250000     -0.214892    0.21896300   -0.39557700
Ge    6.67157000    5.26318000   16.85196000      0.155781   -0.30844400    0.11572000
Ge    8.16526000    8.66100000    4.52498000      0.484911   -0.54678900    0.56918800
Ge   10.23692000    6.86915000   16.14766000     -0.012476   -0.48431000   -0.43422400
Ge    7.01719000   16.27611000    9.50155000      0.141023    0.63299100    0.43480400
Ge   10.75620000   15.48783000   16.50666000     -0.515327    0.79035600    0.37836900
Ge    9.32950000   21.66782000    6.82618000     -0.041589   -0.52419900   -0.42429900
Ge   11.09726000    1.17616000   13.78651000     -0.292348    0.38670900   -0.40143000
Ge   11.52743000    7.59121000    5.41578000     -1.872483    0.55784500    0.42811500
Ge   16.21530000    4.00288000   16.91756000     -2.684760    0.21204500    0.68085900
Ge   16.01218000    8.78750000    6.84235000     -0.170116   -0.26025200   -0.10907200
Ge   15.35290000   12.67922000   15.55085000     -0.577157    0.51619700    0.44199900
Ge   12.28214000   14.00129000    6.45358000     -0.488349   -0.03585700    0.37743300
Ge   15.85275000   18.92360000   18.15651000     -2.831955    1.79134500   -0.54148500
Ge   13.80807000   21.43705000    8.09059000     -0.324259   -0.80995500    0.26683400
Ge   19.13052000   22.06919000   13.73247000      0.304047   -0.15969800    0.91954800
Ge   22.09098000    4.21234000    8.34458000     -0.261493    0.23158900    0.01028500
Ge   20.96358000    5.57935000   13.87962000      0.407661    0.56474500    0.71715400
Ge   18.71812000   10.73783000    7.68064000     -0.504171    0.79656600   -0.36967300
Ge    0.16823000   14.59054000   16.74105000     -0.492704   -1.22656700   -1.37365900
Ge   16.92826000   16.13863000    5.97725000     -0.259629    0.15756500    0.57541800
Ge   17.35334000   18.29846000   15.04087000     -0.814268   -0.59731200    0.73715600
Ge   21.11732000    0.74659000    6.15449000     -0.448330   -2.92653800    0.55110300
Ge   18.21866000   21.83397000   16.89085000      0.728331    0.34118700    0.97826000
Ge    6.33499000    0.85153000    6.66814000     -0.272895    0.22601200    0.37351300
Ge    3.48210000    2.12435000   12.08326000      0.874648    3.52484000    2.12635500
Ge    0.49961000   10.79958000    5.11889000      0.620183    0.41088800   -0.11789300
Ge    2.78806000    7.06711000    9.96688000     -0.528448    0.79108600    0.82008300
Ge    0.58937000   17.27316000    4.17286000      0.210478   -1.33422700   -0.64867100
Ge    4.29950000   17.98041000   15.84699000     -1.567756   -0.94955900   -0.77989400
Ge    5.29508000   21.73682000    9.92706000      0.207945   -0.77247000   -0.18006800
Ge    8.20701000   20.28828000   16.07951000      0.180959   -0.49099000   -0.31163900
Ge    5.04136000    5.60897000    1.49399000     -0.340189   -0.04890600   -0.82248700
Ge    9.91087000    3.57867000   17.34318000     -0.099997    0.15467100    0.69406000
Ge    7.07200000    4.09190000    5.09679000      0.739510    1.39349000    0.32444700
Ge    9.39162000    9.76157000   13.12653000     -0.940370    0.51279800   -0.05553900
Ge    5.12784000   14.56494000    2.44330000     -0.298429   -2.96224500   -0.28905000
Ge    9.66250000   10.80261000   16.92071000      0.495461    0.11334500   -0.43921600
Ge    7.07101000   20.12230000    4.32589000     -0.421179    0.34413900    0.59007400
Ge    9.60423000   15.69144000   13.31131000     -0.303545    0.98267800    0.12156400
Ge   11.90120000    1.59031000    5.16186000      0.035137    0.17057500    0.41104600
Ge   13.68277000    4.20470000   15.49282000     -0.321021    0.20833100    0.34425600
Ge   17.91870000    3.84984000    6.60276000     -0.861532   -0.78651600    0.29697400
Ge   15.03996000    9.54657000   15.74476000      0.314447    0.22708800   -0.91198000
Ge   14.62215000   13.45028000    2.85885000     -0.066727    0.53145800   -0.26952700
Ge   13.29151000   15.36237000   12.80193000     -0.241074    0.11308700   -0.39628700
Ge    9.55686000   18.57717000    4.93885000      0.492126   -0.02857300   -0.71932100
Ge   11.55156000   20.49516000   16.35251000      1.971555   -0.77533700   -1.08838600
Ge    1.06423000    6.65338000    6.03818000     -0.324434   -0.04926400   -0.02021300
Ge   22.16387000    3.74727000   12.51767000      0.403393    0.61639300   -0.69459700
Ge   20.13229000    8.53437000    7.28460000      0.239754   -0.25467700   -0.36458500
Ge   16.95998000   11.59824000   11.88552000      0.566430    0.59839700    0.61116400
Ge   21.82661000   17.06254000    0.76260000     -1.267233   -0.03038800    0.30757900
Ge   19.46745000   14.90055000   13.71818000     -0.777231   -0.58212400    1.30443400
Ge   18.66180000   19.36210000    4.70149000     -0.362095    0.22520700   -0.64519400
Ge   21.89398000   20.32275000   13.07213000      0.626956    1.18389400   -0.98719300
Ge    3.40638000    1.84077000    2.93027000      0.052993   -0.32325600   -0.65567700
Ge    6.15984000    1.19220000   11.42533000     -0.364675    0.39928800    0.37923900
Ge    5.71399000    9.64767000    4.16845000      0.260919   -0.54509300   -0.36646900
Ge    7.05828000    4.76949000   12.74514000      0.130453   -0.04124300    0.04339500
Ge    5.90463000   12.06135000   18.60359000     -0.596551    0.05952600    0.18454900
Ge    4.57562000   10.28423000   11.47098000      0.611009   -0.14684500   -0.32003900
Ge    2.79757000    0.41082000    8.08790000     -0.388798    0.28406400   -0.49322900
Ge    7.36527000   19.13231000   13.98245000     -0.328055   -0.89959300   -0.90089400
Ge    8.74881000    4.22956000    2.56430000      0.527831   -0.03641600   -0.05266100
Ge    9.67832000    4.24098000   11.36371000     -0.038576   -0.17854300    0.60126200
Ge   12.87896000    9.72184000    1.86795000      0.842710   -0.80092800    0.35646800
Ge   12.26952000    7.59954000   12.64379000     -1.250667    1.71339500    0.12476300
Ge    9.12524000   14.69080000    1.67497000     -0.014564   -1.62254600    0.76373900
Ge    8.87454000   13.72575000   10.27064000      2.172296   -1.24322000   -0.85304900
Ge   10.14691000   21.31481000    1.70234000      0.224325   -0.29879600    0.29618800
Ge   11.01676000   19.26360000   12.68784000      1.157475    0.17063900   -0.28255700
Ge    0.19157000   21.33058000   16.20856000     -0.408184    0.22951000    0.30203400
Ge   13.16465000    1.07202000   10.14357000     -0.224594   -1.16775300    0.87136500
Ge   16.43171000    7.18019000    2.46895000      0.369752   -0.67565300    0.28672700
Ge   16.46876000    7.23345000   12.51067000     -0.542720   -0.24060100    0.69010500
Ge   18.50236000   12.92196000    1.20875000     -0.489587   -0.04461800   -0.08162600
Ge   15.15833000   16.85544000    8.52775000     -0.105494    0.50590600   -0.57305500
Ge   16.48945000   21.34033000    2.17530000      0.505998    1.12316400   -0.49344800
Ge   16.63338000   20.13709000   11.26854000     -0.630914    0.78500900   -0.26979000
Ge   19.09007000    1.87254000    2.89194000      2.032924   -0.71293600    0.72299900
Ge   22.22253000    1.18469000   10.79869000      1.149002   -0.44603300   -2.07387600
Ge   21.37033000    7.82267000    2.32310000     -0.066981   -0.12440200   -0.47325000
Ge    0.56205000    8.38048000   14.76174000     -1.330532    0.74339500   -0.48561400
Ge   20.97279000   12.80300000    0.17243000     -1.777677    2.54421100   -1.70958800
Ge    0.40359000   15.40727000    9.81443000     -0.461330    0.28899200   -0.03515800
Ge    3.36093000   21.05057000    5.71564000      0.597765   -0.42535500   -0.06765200
Ge   19.27587000   17.78035000   11.75740000     -0.143882    0.64592500   -0.44889200
Se   20.24701000    0.52805000    1.12960000     -0.139031   -0.16486800   -0.22504100
Se    0.35909000    0.13181000    8.20902000     -0.368883    0.35035100   -0.07360600
Se    4.53205000   11.71927000    3.84580000     -0.307628    0.18771700   -0.67882400
Se    1.09092000    6.22683000   14.04939000     -0.422500   -0.54141900   -0.16140700
Se    0.57749000   12.44774000   17.61553000     -0.315917    0.68505700    0.30461500
Se    0.99421000   13.05130000    9.39238000      0.166964   -0.78512300   -0.12898200
Se    2.53197000   18.37214000    4.86630000      0.915722    0.78779100    0.57254600
Se    2.28762000   16.01503000   11.40584000     -0.035131   -0.92718200    0.12082900
Se    3.71264000    2.01438000   18.91961000     -0.093468    0.00237900    0.55412300
Se    7.30368000    3.23049000   10.45444000      0.453360   -0.33040500    0.81017600
Se    7.17740000    6.32125000    2.31870000      0.389164    1.12804000    1.31229500
Se    9.62327000    7.62385000   12.05051000      0.140660   -0.25498800   -0.29575000
Se    7.52218000   10.51488000    1.09143000      0.024052    0.36038100    0.86312700
Se    6.97577000   11.25572000   12.01967000      0.004230   -0.41252900   -0.37357000
Se    4.73711000   20.26531000    3.31840000     -0.027224    0.84564800   -0.12939900
Se    9.22884000   17.91030000   11.67912000      0.101909    0.53864300   -0.12852800
Se   10.38076000    2.47800000    0.94400000      0.185959    0.09767700   -0.04865300
Se   13.34123000    2.21646000   13.83504000      0.944956   -0.10859000   -0.37435500
Se   11.26761000    8.68478000   18.90253000      0.843170    0.21130500   -0.02093900
Se   10.36110000   11.54428000    9.53275000      0.534809    0.23795800    0.08571900
Se   12.85464000   15.57304000    3.29581000      0.332811   -0.50602400   -0.23013500
Se   10.93593000   10.56132000    6.30616000      0.336981    0.02380000    0.00896300
Se   14.57133000   18.29695000    1.34488000     -0.131503   -0.15116100   -0.59231300
Se   13.44671000   17.08668000   10.34396000     -0.057932   -0.19009400   -0.61798900
Se   17.70937000    3.32755000    1.85201000     -0.533064    2.31890100   -0.56517800
Se   16.88252000    1.42105000   13.73486000     -0.284904    0.14539500   -1.00362300
Se   15.56819000    6.20239000   18.52095000      0.043306    1.12111200   -0.14368800
Se   17.24553000    4.99967000   12.48676000      1.306006   -0.80031900   -0.32591300
Se   18.55057000    9.06381000    1.09522000     -0.766973    0.31256000   -0.07567000
Se   15.84828000   13.32882000    5.11939000      0.698867    0.42119600    0.22895500
Se   20.81428000   20.21147000    1.03011000     -0.298410   -0.44927300   -0.34422800
Se   17.88166000   20.05736000    8.37502000     -2.390555   -0.14916300    0.84865000
Se    0.69141000    0.57175000    2.58427000      0.603858   -0.06084500    0.62175700
Se    6.66603000    6.64749000    9.04886000      0.378647    0.76268000   -0.01029000
Se    7.91732000   11.55392000    3.25050000     -0.123307   -0.72192100   -0.61342300
Se    5.31814000   10.59432000    9.06643000     -0.337559   -0.15374500    0.44657600
Se    3.48410000   13.52198000    0.58775000      0.962736    0.31367100    0.47946100
Se    2.51680000   11.92512000   12.56156000      1.739607    0.20470900   -0.20502400
Se    2.86319000   21.74307000   18.41172000     -0.663089   -0.07652300    0.43262600
Se    6.78952000   19.46010000   10.31703000     -0.779613    0.79519500   -0.22317800
Se   13.15989000    6.02388000    4.80743000      0.109996   -0.41723400   -0.90243400
Se    7.45816000    3.18906000    7.40551000     -0.795337    0.25233400   -0.14204800
Se   12.32797000   11.96507000    1.87907000      0.350710    1.28692300    0.23182900
Se    7.99162000   10.44711000    9.78032000     -0.921381    0.55928900    0.27223300
Se    9.96659000   16.87035000    1.56911000      0.193594    0.73061000   -0.36648100
Se   12.36916000   13.09990000   14.20298000     -0.024574   -0.18689400   -0.26337900
Se    9.78391000   21.65756000   17.33449000     -1.271351    1.30700200    2.02842500
Se    7.63464000   22.29511000   12.68636000      0.789873   -0.38661500    0.00575300
Se   14.66395000    5.11319000    1.50190000     -0.001583   -0.81856200    0.09330300
Se   16.07901000    6.23475000    9.63504000      0.660194   -0.54634700   -0.92950600
Se   15.28925000   10.90059000    0.46788000     -0.150612    0.17068000   -0.13007800
Se   15.00224000   11.37127000   13.53298000     -0.738988   -0.48258700    1.12129900
Se   18.10201000   15.62465000    0.67429000      1.336036   -0.82290500    0.30675400
Se   15.71004000   10.93460000    9.95002000      0.110821   -0.46016000   -0.97316000
Se   16.15365000   21.49037000   18.26001000     -0.371359   -0.43314800    1.18556800
Se   15.61300000   19.24075000    7.14140000     -0.210214   -0.49578000    0.69781800
Se   22.08424000    4.49570000    2.34671000     -0.532175   -0.22560800   -0.19677800
Se   21.33125000    7.47567000   11.33496000     -0.287412    0.11608700    1.03440000
Se   20.90571000    5.53027000    0.41144000      1.247395    0.42473200    0.61147300
Se   21.77114000   10.71074000   12.44904000     -0.795622   -0.28581400    0.51023900
Se   20.16343000   14.94998000   17.57455000      0.497752   -0.53473700   -0.06577200
Se   20.28134000   15.56433000   11.63368000      0.604129   -0.37963500    0.14659400
Se   20.22882000   21.49963000    3.92136000     -0.518080    0.86701400    0.22698600
Se   18.75770000   21.74283000   11.42756000     -0.410579   -0.44597100   -1.36937400
Se    3.29180000    5.87392000    7.90440000     -0.161859   -0.84056500    0.33983100
Se   20.78757000    2.40101000   18.68608000      0.552439    0.36494600    0.42131300
Se    2.97256000    9.47042000    8.53546000      0.062332    0.13494000    0.77681900
Se    0.34690000    9.34973000   17.19838000     -0.948533   -0.07877000    0.90698900
Se    3.99864000   17.61379000    8.48779000     -0.190533    0.72994900   -0.07169300
Se    1.18554000   17.83574000   15.14577000      0.089987    0.20394100   -0.29736800
Se    0.37330000   18.27045000   12.87865000      0.945394   -1.37191800   -0.47078900
Se    2.10771000   19.90730000   16.92237000      0.014757    0.09217500   -0.10109000
Se    2.68887000    4.47462000    5.16064000     -0.177359    0.19097200    0.79536200
Se    5.56068000    7.38315000   18.36631000     -0.048990   -0.50744900    0.70177000
Se    6.00382000    9.09876000    6.55740000      0.006268   -0.38633600    0.17224400
Se    3.69704000    6.74689000   17.09583000     -0.608007   -0.25357400   -0.20617400
Se    7.47754000   14.74416000   11.71659000     -1.327243    0.90934300    0.89552200
Se    5.77643000   17.44996000   18.34812000      0.447806   -0.12760600    0.15165000
Se    9.24758000   18.89081000    7.41137000     -0.968753    0.88613800   -0.77374900
Se    5.76589000   19.63711000   16.77093000      0.788868    0.75522200    0.95113500
Se   10.66380000    1.79221000   11.23185000      0.180227   -0.28672300   -0.50198100
Se   12.46987000    4.97446000   17.55007000     -0.431642   -0.24640900   -0.33851800
Se   12.92009000    7.90179000    7.46471000      0.843094    0.23331600   -0.93084700
Se   13.67847000   10.90380000   17.00142000      0.084399    0.86513200   -0.06679000
Se   10.80312000   15.92747000    7.48045000     -0.015848   -0.83716700   -0.07673500
Se   14.54191000   16.20299000   17.97147000     -0.175889    0.17951000    0.02564500
Se   11.41595000    0.29991000    7.64787000      0.783873   -0.05222500   -0.42574400
Se   12.66600000   21.63058000   18.29149000      1.341205    0.41578000    0.73237700
Se   13.58705000    3.08020000    9.11110000      0.156503    1.41353500    0.38091300
Se   21.46778000    3.24959000   15.36495000      0.011085    0.79191100    0.53008200
Se   19.40393000   11.20393000   10.55395000      0.106489    0.43859600   -0.98686400
Se   17.22974000    8.89150000   16.23781000      0.056626   -0.21089800    0.03844300
Se   13.52844000   16.08253000    6.14961000      0.330001   -0.12027700   -0.47870400
Se   20.45411000   12.83036000   14.54780000     -0.410361    0.42143300   -0.06073900
Se   19.88975000   19.90247000    7.44526000      2.362236   -0.32140000   -0.57900200
Se   17.94340000   19.52460000    2.04739000      1.058931   -0.41686500    0.62295200
Se    4.03712000    1.96671000    9.49118000     -0.190840    0.44508200   -0.87423400
Se    1.65806000    3.14523000   18.74601000      0.000604   -0.27375800   -0.03516200
Se    8.81725000    9.87393000    7.20951000      0.230992    0.33629000   -1.09253200
Se    4.59463000    9.99682000    1.41859000      0.172126    0.15959400   -0.28832400
Se    6.59169000   16.51393000    6.01175000     -0.501551   -0.75695900    0.17974300
Se    3.92464000   10.13429000   17.46418000     -0.096353    0.63795800    0.61886300
Se    0.42985000   18.50386000   10.05941000     -0.207959    1.03689200   -0.68466100
Se    1.46767000   17.74624000    1.51075000      0.369222    0.76529300    0.58090300
Se    7.85421000   22.46017000    8.64735000      0.374041    0.15242400    1.25552100
Se    6.86325000    3.50502000    1.03756000     -0.731971   -0.76321200   -1.06602900
Se   10.76335000    5.27670000    9.45329000      0.101041   -0.01265800   -0.76530800
Se    8.78983000    5.85100000   18.74881000      0.184753   -1.13196800   -0.78446700
Se    9.17968000   13.06139000    5.76653000     -0.788928    0.16942500   -0.40571500
Se    8.39820000   13.68525000   17.76975000      0.105232    0.00411600   -0.81980100
Se   11.69941000   20.84161000   10.21240000     -0.986049   -0.77966900    0.39780400
Se   11.88260000   13.73785000   17.91767000     -0.407810   -1.10122800    0.09534600
Se   15.65336000    0.34027000    7.84868000      0.379169    0.63708500   -0.34309600
Se   15.89265000    2.70704000    0.43489000     -0.800337   -0.47147500   -0.16586800
Se   16.96314000    3.82127000    9.16364000      0.309605    0.08424100   -0.62421600
Se   13.80763000    7.67394000   15.21092000     -0.657525   -0.76834800   -0.06031300
Se   16.77657000    8.71719000    9.42775000      0.029114    0.91706300   -0.89478500
Se   15.14379000   14.00874000   18.63097000     -0.115780   -0.22636100    0.47693100
Se   12.54343000   18.44170000    4.59441000     -1.004358    0.02037700    0.35331900
Se   17.86097000   18.13783000   18.31187000      2.869017   -1.07522900   -0.62937500
Se   20.73322000    3.29466000   10.38220000     -0.251621    0.35922000   -0.91932900
Se    0.81888000   22.17130000   13.75777000     -0.276788   -0.28187200   -0.13664400
Se   19.48086000    8.28086000    9.98831000     -0.415200    0.01547500   -0.26145500
Se    0.47625000    5.53366000   17.82222000     -0.569361    0.08151100   -0.07567800
Se   21.23112000   11.15943000    6.77862000     -0.560026    0.67277800    0.67665400
Se   19.89001000   10.81841000   17.17368000      0.085203    0.75576400   -0.02306900
Se   19.94245000   16.61136000    6.69842000     -0.501194    0.26636500    0.01042900
Se   19.93185000   16.47459000   15.79892000     -0.506037    0.40450700   -1.07076000
Se    2.98738000    0.10506000   11.31486000     -0.695496   -3.56388900   -1.53992000
Se    2.48951000    1.71269000   14.64124000      0.541811    0.10385700    0.16394700
Se    0.05843000    8.76068000    7.94786000      0.063827   -1.27317700    0.08981700
Se    1.96430000   10.12232000   15.74661000      1.853579    0.65079800   -1.03079300
Se    3.43290000   15.23176000    7.76960000     -0.674460   -0.01117000    0.46006300
Se    3.17030000   12.94008000   16.25037000      0.556323    0.05405500   -0.91294300
Se    0.87587000   16.30880000    7.56027000      0.351169   -0.29395100   -0.72964800
Se    2.95143000   20.84146000   12.93758000      0.352023   -0.27107400    0.84510400
Se    5.83227000   22.39667000    2.25833000     -0.386792   -0.66069100   -0.54910600
Se    6.36154000   21.47761000    0.10351000     -0.163333   -0.08917500    1.01497000
Se    9.42619000    6.51833000    6.41473000      0.130676    0.64204300   -0.46600900
Se    4.66234000    4.63785000   13.37281000      0.091591   -0.10142400   -0.47760300
Se    4.96500000   12.78140000    6.04310000      0.182801    0.33521200   -0.15519000
Se   10.10342000   13.63749000   15.03053000     -0.202041   -0.46203900   -0.38863800
Se    6.67199000   17.35722000    3.85789000      0.355076    0.34442100   -0.92286800
Se    7.97316000   16.78374000   15.15510000      0.327984    0.36918600   -0.46688800
Se   13.72165000    0.04335000    3.31436000     -0.140404   -0.29647200    0.53328300
Se   13.65143000    0.87609000   16.22618000     -0.745796   -0.12567200    0.44425200
Se   14.43519000    9.61383000    4.07823000     -0.461451    0.15142000   -0.29666300
Se   12.18672000    5.39577000   13.43263000     -0.189373   -1.63269500    0.74715900
Se   14.03130000   11.85634000    5.09265000     -0.619966   -0.61901100    0.08653200
Se   14.05252000   14.89973000   15.24226000     -0.038123   -0.39633300    0.49900000
Se   12.73087000   19.09950000    6.86194000      0.552490    0.66276800    0.17935900
Se   12.44378000   18.81891000    0.57765000     -0.135796    0.15062200   -0.10554700
Se   19.03761000    1.21826000    7.24667000     -0.419429    0.54557600    0.46957800
Se   19.68394000    1.12736000   15.74119000      0.029005    0.16853700    0.62012400
Se   19.89995000    5.22524000    6.92996000      1.160529    0.39165100    1.68067900
Se   20.48062000    7.14873000   16.38873000     -0.430332    0.68247300   -0.65096300
Se   19.54691000   12.69815000    3.44251000      0.003772    0.35522600    0.09300600
Se   16.84602000   14.78984000   13.41400000      1.312669    0.22024600   -0.27882100
Se   16.23943000   17.73486000    4.13202000      0.223270   -0.37230700    0.10930900
Se   17.43802000   20.73829000   14.93935000     -1.490063    0.68450500   -0.51945900
Se    2.67722000    8.42410000    4.98265000     -0.916383   -0.10391500   -0.65348700
Se    4.04932000    7.64177000   13.57415000     -0.741903   -0.90470500   -0.34249100
Se    1.88072000   12.73231000    3.19569000     -0.133000    0.19837600    0.90054600
Se    5.33927000    9.42858000   14.13171000      0.228020    0.15977200    0.31109000
Se    5.54057000   14.47180000    8.85815000      0.200590   -1.11027100   -0.04218700
Se    3.46444000   16.59102000   17.94525000      0.708321   -0.10321600   -0.51699600
Se    3.23348000   20.58627000    8.64308000      0.207562    0.13729900    0.09909900
Se    6.07133000    1.09132000   14.64554000     -0.156837   -0.20309200   -0.12369400
Se    7.97123000    0.26730000    4.85786000      0.296682   -0.39974700    0.20948000
Se    7.28031000    2.69371000   17.71250000      0.311056    0.13174300   -0.00440000
Se   13.03374000   11.28840000    9.28488000     -1.447806    0.01865600   -0.11481000
Se    9.15226000    8.39777000   17.75113000     -0.883164    1.48702100   -0.23962000
Se    8.46970000   14.67981000    8.05218000      0.441931    0.85986400   -0.10772900
Se   11.81434000   17.17473000   14.16565000     -0.092196   -0.44570100    0.14545100
Se   10.63725000   20.86616000    4.35476000     -0.133064   -0.38660100   -0.30483800
Se   10.25432000   18.59419000   17.29066000      0.143188   -0.02051500   -0.88184000
Se   10.13885000    3.06639000    5.99123000     -0.380112    0.41820400   -0.33144000
Se   18.33486000    4.64580000   16.42618000      1.809040    0.78621100   -0.41981100
Se   17.70504000    7.02301000    6.10987000     -0.104491    0.84099900    0.27736800
Se   17.50041000    9.23582000   12.65084000      0.964349    0.08129700    0.67257700
Se   17.35268000   10.30986000    5.42385000      0.778002    0.01650400    0.54547700
Se   14.82054000   19.23732000   15.98862000      0.230275   -0.78079600    0.23163300
Se   14.85018000    3.24655000    4.63024000     -0.352081   -0.30031300   -0.70339200
Se   18.75999000    2.84410000   13.38192000     -0.265678    0.54153800   -0.04023800
Se   22.07715000    2.66451000    5.60986000      2.176902    1.79673600   -0.47194300
Se    2.10299000    4.08651000   15.11411000     -0.405196   -0.46672500    0.42807200
Se   17.28631000   13.38082000    7.60315000      0.893463   -0.14930000    0.48083700
Se    0.31758000   12.61431000   13.55436000      0.000214    1.22975400    0.40840100
Se   18.92903000   15.48509000    4.72440000      0.508772   -0.32272000    0.31793900
Se   20.38066000   19.81769000   14.67660000     -0.472088    0.02382500    0.44651300
Se   20.87658000   17.56045000    9.49464000     -0.243227   -0.02375800   -0.00760100
Se   20.30875000   20.39177000   17.61476000      0.184729   -0.20515700    0.14953700
Se    3.69024000    1.18214000    5.81622000     -0.358730   -0.26086500    0.11657400
Se    7.77157000    2.79438000   14.19296000     -0.027402    0.81828600    0.33784000
Se    1.40331000    8.02272000    1.65097000      0.482493    0.00773600    0.27462700
Se    5.11521000    7.11020000   11.15873000     -0.222683    0.45346800   -0.06306400
Se    1.52943000   15.31832000    1.99053000     -0.137321   -0.40878900    0.15461900
Se    6.28692000   14.37748000   14.64134000     -0.392312    0.33535200   -0.22961100
Se    4.61623000   16.73086000    2.76207000     -0.975491    2.75479600   -0.48212200
Se    5.71557000   17.78015000   12.12921000     -0.343207   -0.11733100    0.00980300
Se    8.97569000    0.90486000    2.24136000      0.511717    0.52619500   -0.42879000
Se   10.40875000    1.17611000   16.39729000     -0.011041    0.62110200   -0.60241300
Se   10.30636000    8.82117000    3.27230000      0.856902   -0.88952900   -0.22883000
Se    7.66000000    6.65965000   14.82452000      0.530886   -0.13768800    0.62789800
Se   10.77543000   12.23758000    4.24902000      0.647835   -0.70752100    0.22521300
Se   10.76301000   11.79833000   12.26649000      0.404023   -0.38115000   -0.71696300
Se    8.00869000   19.65887000    1.61309000      0.060598    1.36316700    0.40167900
Se   16.41936000   18.25241000   12.78201000      0.330418   -0.53704900   -0.11481000
Se   13.37783000    3.33957000    6.43821000      0.105602    0.12281500   -0.54374700
Se   15.85552000    1.46564000   16.54498000      0.724063   -0.89400300   -0.25400100
Se   16.20989000    5.54743000    4.95179000      0.128646   -0.20177900   -0.27924600
Se   12.98195000   10.36942000   11.47780000     -0.514497    0.15483800   -0.14477800
Se   16.64144000   11.45858000    2.35689000      0.043228    0.22357500   -0.16553800
Se   17.71325000   12.83850000   16.14793000     -0.398091    0.20255500   -0.36473000
Se   16.65757000   15.82065000    2.47563000     -1.053366   -0.10779400    1.04229000
Se   14.78335000   21.63595000   12.49013000     -0.278073   -0.91907200   -0.09345400
Se    0.18075000   19.50707000    7.31145000      0.080411    0.09553900   -0.37861700
Se   21.28975000    1.50741000   12.88580000     -0.506123   -0.67748600    1.83766800
Se   21.52190000    6.61397000    4.49829000      0.251103   -0.04341600   -0.46949400
Se   20.55478000    8.87583000   14.52944000      0.627360   -1.11677200    0.70743300
Se    0.98426000   14.33550000    5.34873000      0.915239   -0.43290800    0.39319400
Se    1.86388000   14.62484000   14.64448000     -0.379098   -0.54775800    1.01532200
Se   20.82790000   17.99186000    3.59378000     -0.473011    1.19346700    0.51076400
Se   21.22904000   21.24259000   10.79699000     -0.381732   -0.45641300    0.12851400
Se    2.93486000    4.35752000    2.87639000     -0.753908   -0.57112500   -1.36234100
Se    1.70051000    3.79786000   11.19219000     -0.237460   -0.27305800   -0.04057800
Se   22.13204000   11.17049000    0.99027000      2.021159   -3.79068100    2.52919000
Se    0.96455000    9.15396000   12.46938000      1.222438   -0.10837700   -0.60479000
Se    0.51930000   16.68007000   17.52195000      0.652832    1.28765000    0.37293100
Se    4.60140000   16.08529000   13.77378000      0.376009   -0.26974500    0.11168500
Se    1.44832000   20.88298000    4.00400000     -1.031464    0.21568100   -1.52706900
Se    4.87194000   20.97714000   14.58541000     -0.181514   -0.06960000   -0.48320800
Se    6.28647000    2.51841000    3.55767000     -0.675182   -0.83610900   -0.19759300
Se   10.30719000    3.63609000   13.98364000     -0.410051    0.58923400    0.81919500
Se    4.90976000    5.52254000    5.15693000      0.788255    0.47776600    0.75722200
Se    7.85212000   10.73109000   15.23997000     -0.195118    0.16135000    0.10383300
Se    6.83335000   14.62025000    0.65923000      0.641863   -0.10210000   -0.13184800
Se   11.11869000   14.83907000   11.13278000     -0.359591   -0.25488100   -0.09474600
Se    5.81425000   20.63253000    6.67712000      0.507765   -0.56889300   -0.56589300
Se   10.28780000   21.18250000   14.02820000     -0.430339   -0.69334200   -0.14246700
Se   12.75122000    3.42679000    2.71203000      0.240356   -1.32519900   -0.01341200
Se   14.35479000    7.18687000   11.37431000     -0.546752    0.04524500   -0.77069100
Se   13.24187000    7.00311000    2.43811000      0.297294    0.13509100    0.45553600
Se   11.23491000    9.79270000   14.60724000      0.801882   -0.55535500    1.46404900
Se    8.66360000   14.88342000    4.24182000      0.014979    0.28436400    0.02209300
Se   14.85988000   13.49838000   10.99272000     -0.343890    0.65910900   -0.45714000
Se   14.64949000   20.25898000    3.26222000     -0.495068    0.65246800    0.27919200
Se   13.55795000   19.45479000   13.08459000      0.319780    0.56229600   -0.08476200
Se   18.84518000    5.91004000    2.17290000     -0.902294    0.15369600   -0.02458800
Se   15.55075000    5.92716000   14.85440000      0.023768    1.07711200   -0.39826200
Se   19.90806000    9.10137000    4.27278000      0.185537    0.07834000   -0.15433100
Se   18.58632000   13.84583000    9.69050000     -0.157241   -0.35920100    0.02553000
Se   21.65390000   14.66542000    2.44717000      0.319403    0.04607100   -0.68635900
Se   17.43240000   17.12102000    9.76499000      0.345342    0.51514500   -0.26456500
Se   17.35332000    0.64593000    3.84399000     -1.222148   -1.01324100    0.00970400
Se   16.14660000    2.01434000   11.30025000     -0.367094   -0.24456900    0.44000100
