384
22.54784000 22.54784000 18.93360000
Ge    5.21676000    3.94194000   10.76738000     -0.449656    0.12211200   -0.25670800
Ge    4.64209000    6.61582000    1.62498000     -0.400321    0.63609000    0.13458300
Ge    4.20811000   11.37331000    7.84503000     -0.430298   -0.84313900   -0.99817500
Ge    6.75764000   10.23213000   17.76478000      0.124374    0.01672800    0.90175400
Ge    4.99045000   14.78617000    9.08707000     -0.816128   -0.72294400   -0.31877400
Ge    8.06341000   17.32359000    1.18127000      0.453158   -0.33321000   -0.21395100
Ge    8.17594000   19.31246000    8.92719000      0.368649    0.38750700   -0.44269400
Ge    5.08408000    0.36123000   18.50722000      0.304329   -0.46563000    0.04306900
Ge    7.97667000    5.51079000    9.49919000     -0.081699   -0.00565200   -0.49793700
Ge   11.37767000    5.47582000   18.12488000      1.946483    0.07497200   -0.54341300
Ge   11.76376000    7.50412000    9.19573000      0.198886   -0.86470400   -1.57083600
Ge   10.45357000   12.40220000    0.34184000     -0.454599   -1.00028000   -0.91208400
Ge   10.23167000   16.66289000    8.82063000     -1.295049    0.04582000    0.03384700
Ge   12.22556000   15.52957000    0.98304000     -0.403512    0.79085900   -0.59464700
Ge   10.09901000    0.03065000   10.36936000     -1.384718   -0.79336800    0.75941900
Ge   15.59950000   21.55164000    0.27467000     -2.085563    0.64549100   -0.89395500
Ge   18.04153000    5.54687000   10.08527000     -0.659634   -0.46597400   -0.08730700
Ge   18.39085000    6.81636000   17.93144000      0.116926    0.88567700   -0.72915100
Ge   18.73455000   14.88347000   10.54218000     -0.216135    0.12511300    0.53909500
Ge   18.24828000   11.49697000   17.91058000      0.037629    0.52320400    0.47554800
Ge   13.78308000   16.91839000    8.74883000      0.135269   -0.50441900    0.37659300
Ge   16.78020000   14.91222000    0.08260000      0.121142   -2.83269600    0.17953800
Ge   16.12954000    3.71301000    9.06109000      0.634597   -0.79902600   -0.84088000
Ge   19.11352000    3.97939000   18.70028000     -0.755589   -0.73588000    0.53875400
Ge    0.86496000    5.09179000   10.22119000     -0.290496   -0.12226200   -0.23090300
Ge   21.81736000    4.69493000    3.15646000     -0.031330    0.28623300   -0.25985800
Ge    0.45774000   10.62701000    9.23608000     -0.087454   -0.78856900    0.28125800
Ge   21.40004000    8.93704000   18.62706000      0.486150    0.72675200   -0.08215300
Ge   20.93010000   15.31615000    9.18287000      1.145447    0.21540900   -0.44696800
Ge    4.20858000   15.08734000   17.90106000     -0.376214    1.37241000   -0.68814900
Ge   18.80179000   22.42085000   10.33217000     -0.068116   -0.07332000   -0.32895100
Ge   20.86668000   20.80772000    1.29656000      0.160779   -0.31620600    1.13807600
Ge    2.41956000    6.39793000    8.20294000     -0.442011    0.16091600   -0.50116400
Ge    1.87902000    7.42102000   17.00246000      0.024376   -0.57594300   -0.10209900
Ge   20.26535000    8.74896000    5.30160000      0.710794   -0.05525400    0.04977100
Ge    3.74356000   12.85028000   15.57126000     -0.411370    0.52078400   -1.04694500
Ge    5.31644000   19.23652000    4.69288000     -0.207525   -1.07785800    0.27711700
Ge    0.13167000   18.51480000   17.90414000      1.696493   -0.83258600    0.01102400
Ge    4.32544000   19.46497000   10.17984000     -0.346925    0.15655700   -0.07753700
Ge    2.12110000    2.01507000   17.30112000      0.577772   -0.55430200    0.23936100
Ge    9.71306000    3.50673000    6.80403000      0.257111   -0.54362600    0.91966500
Ge    7.03042000    6.75520000   16.02714000     -0.617429   -1.02986000    0.41629100
Ge    7.91862000   11.11629000    3.91101000      0.352440    0.19282700    0.24631800
Ge   10.03395000    7.98000000   16.83310000      0.500563    0.32494700    0.58848400
Ge    6.43318000   17.46297000    8.33083000     -0.521176   -0.59647200   -0.02286600
Ge    9.99864000   15.52873000   16.19191000     -0.538534    0.02364000   -0.18877400
Ge   10.56564000   21.60230000    6.47618000     -0.141626   -0.66260200    0.31085700
Ge   10.22160000   21.27174000   14.32954000     -0.776125   -0.27679500   -0.11777300
Ge   12.21147000    7.01572000    5.03744000      0.315624    0.63444700   -0.42679800
Ge   15.43364000    4.94068000   15.73401000     -0.239125    0.13345800   -0.28337300
Ge   13.58270000   10.80865000    6.84541000      0.481580   -0.38654400   -0.18296600
Ge   15.15491000   11.86375000   15.98975000     -0.044555    0.34207200   -0.02411400
Ge   12.74866000   15.29414000    5.54569000      0.555029   -1.42689700    0.31422800
Ge   14.66305000   18.03040000   18.90045000      0.666198   -0.12627900   -0.71148500
Ge   13.49653000    0.38486000    9.71551000      0.988921    0.01809500    0.35747300
Ge   16.95423000   22.42703000   14.35587000      0.005765   -0.54433600   -1.41408300
Ge   20.13164000    4.68063000    8.86332000      0.246226    0.10845900   -0.06799300
Ge   21.24126000    6.56225000   13.49320000     -0.701268   -0.62745300   -0.11063000
Ge   17.99136000   10.03091000    7.94957000      0.107919    0.20427000   -0.63095300
Ge   20.59247000   15.44809000   17.00451000     -0.150335   -0.40926200   -0.67776700
Ge   19.63737000   15.18114000    5.44645000      0.606302    0.44335200   -0.60826200
Ge   17.06739000   18.18751000   16.37865000      0.100369   -0.74220500    0.18426100
Ge    0.75927000    0.41462000    7.61292000     -0.357536   -0.16482900   -0.83416900
Ge   18.47622000   20.61663000   17.02659000      0.572108    0.54173200    0.61328200
Ge    6.54884000    2.67143000    6.77517000     -0.027254   -0.30593500    0.37819200
Ge    3.30804000    3.53259000   13.81803000      0.012970    0.51254300    0.17637800
Ge    1.13073000    9.05069000    6.04950000     -0.477432   -1.16235300    0.07292500
Ge    3.47449000    8.31537000   11.24209000     -0.291631   -0.61842800   -0.44741600
Ge    0.84803000   15.85235000    3.93405000     -1.102384   -0.15707600    2.26193200
Ge    2.80612000   17.43073000   15.28791000     -0.420522    0.14821200   -1.05105200
Ge    2.45792000    0.71691000    9.46902000      0.850710   -0.25569900   -0.38502200
Ge    6.85108000   18.15479000   16.49450000     -0.052121    2.36178900    0.61407900
Ge    7.69227000    3.97721000    3.37443000      0.481062    0.09598200   -0.72290100
Ge   10.33799000    2.83939000   16.10638000     -0.521552   -0.09309400   -0.02632500
Ge    8.52054000    8.70015000    4.50819000     -0.562714   -0.17757700    1.23632500
Ge    8.11382000    9.72268000   13.34377000     -0.079201    0.89529700   -0.17451300
Ge    7.10533000   14.49084000    4.24449000     -1.699524    0.83559500   -0.75703400
Ge   12.24665000   12.55019000   15.72790000     -1.167211   -0.09267800   -0.60982600
Ge    7.85919000   20.08404000    3.55189000      0.374877   -0.13535500   -0.61761400
Ge    9.38582000   16.32041000   13.23476000     -0.549417    0.79537300   -0.84380800
Ge   11.64279000    1.56759000    5.03991000      0.653151    0.27366400   -0.10757000
Ge   12.16736000    4.28321000   14.17740000     -0.142028   -0.12617600    0.25912200
Ge   17.17830000    6.23755000    4.58732000      0.239323   -0.10662300    1.07667400
Ge   13.19958000    8.57498000   14.00972000     -0.351060   -0.70593100    1.44364300
Ge   15.01946000   13.01212000    3.94747000     -0.024657    0.12098700    0.05435000
Ge   13.20613000   16.11731000   12.60843000     -0.185603    0.58569600    0.20247000
Ge   11.88695000   17.36171000    4.38291000     -0.068765    0.54953400   -0.46356800
Ge   11.04135000   19.58413000   17.09398000     -0.100274   -0.73889400   -0.05237400
Ge   22.33096000    3.86079000    5.89273000     -0.460210   -0.05310300   -0.35380500
Ge   22.15266000    2.41937000   13.71902000     -0.559081    1.14812800    0.07103500
Ge   18.92761000    7.28126000    7.37366000     -0.327187    0.78108600   -0.04723200
Ge   18.34195000   10.72635000   13.05646000      0.155957    0.86537900    0.34650200
Ge   21.34107000   16.85495000    1.87225000     -0.410761   -0.02179900   -0.30098800
Ge   18.35566000   15.59180000   14.32402000      0.099973    0.44022500   -0.33967600
Ge   19.30282000   20.02286000    5.35924000      0.340662   -0.49105300   -0.37453900
Ge   22.34516000   20.58431000   13.34567000     -0.045148    0.12053300   -0.15896500
Ge    4.23664000    3.33506000    2.82529000     -0.785008    0.03263100    0.52762400
Ge    6.18900000    1.91373000   12.89144000     -0.227446   -0.16624600   -0.06119900
Ge    4.75763000    8.11799000    4.72461000      0.909500    0.64683200   -0.16984800
Ge    6.93410000    5.20176000   13.91667000     -0.059737   -0.07724100   -0.15802000
Ge    4.38894000   13.04553000    0.62199000      0.052216   -0.35053200    0.78116000
Ge    3.90549000   11.59091000   12.33845000      0.335455   -0.30163400   -0.52065900
Ge    4.73788000   21.72994000    5.60848000      0.056570    0.95657400    0.26234800
Ge    7.17309000   19.70337000   12.46765000      0.021174    0.60347200   -0.05941800
Ge   11.40989000    3.90815000    3.40047000      0.579451   -1.15959900   -0.81832300
Ge    8.18974000    3.72759000   11.63773000      0.495590    0.56876000    0.65918200
Ge   11.96581000    7.58825000    1.64478000      0.282179    0.49402300    0.45245700
Ge   10.79287000    6.90318000   12.73431000     -1.598003    0.34805900   -0.25299700
Ge    8.23350000   13.39535000    1.55961000     -0.481537   -0.16682100   -0.55577400
Ge    8.51053000   14.44463000   11.16213000     -0.116143   -0.17053700   -0.75297500
Ge   11.50432000   21.57110000    0.49157000      0.208310   -0.01042100    0.52246600
Ge   11.01047000   19.72432000   12.26410000      0.658893   -0.24001500    0.90881800
Ge   22.00426000    0.17861000   16.95719000     -0.089898   -0.37784800   -1.00315500
Ge   12.62996000    2.65546000   10.91277000      0.589800   -0.08623500    0.49606600
Ge   16.50120000    9.06489000    1.02230000     -0.336934   -0.63575100    0.81173400
Ge   14.85746000    8.91751000   10.20342000     -0.250571    0.05575600   -0.40535400
Ge   18.20982000   11.97980000    2.90987000      0.310357    0.45420100   -1.08034300
Ge   16.82123000   15.64780000    8.68849000      1.173880   -0.46676100    0.95140600
Ge   16.86710000   20.65163000    2.83908000      0.812859   -2.11536900    2.68126100
Ge   14.92203000   19.43123000   10.63951000     -0.340584    0.27995500    0.46944000
Ge   21.22038000    1.30295000    1.92922000      0.030776    0.64931700    0.58535200
Ge   21.37187000    0.79753000   10.42506000     -0.067813    0.67220800    0.42266800
Ge    0.96624000    8.37735000    1.64553000     -0.258561   -0.46625900    0.00935100
Ge   21.49311000   10.22214000   12.55015000     -1.085851   -1.03097400    0.16988900
Ge   20.56908000   12.81635000    1.22132000     -0.985464   -0.13597700    0.28458900
Ge    0.86046000   14.32644000   11.09460000     -1.157543    0.67722200   -2.48322700
Ge    0.16820000   19.35347000    4.51344000     -0.150968   -0.13367600    0.19610800
Ge   18.22000000   18.78906000   11.15854000      0.170822   -0.06436000    0.57014000
Se   20.24796000    0.40625000   18.69067000      0.280211    0.07868400    0.21150200
Se    1.29987000    2.40428000   11.00642000     -0.280923    0.27611200   -0.14032600
Se    2.65432000    9.90853000    2.99004000     -0.258343   -0.06730100    0.12440100
Se   22.29960000    7.48730000   11.36483000      0.083799    0.42038800   -0.20968600
Se    0.20010000   11.96357000    0.52610000      0.837356    0.45692400    0.14396700
Se    1.69717000   12.66014000    9.02386000      0.312984    0.51739500    0.29983500
Se    2.07163000   17.73450000    5.13346000      0.090956    0.42666100   -0.45369700
Se    1.95696000   16.57341000   11.34733000     -0.479540    0.38089100   -0.44170900
Se    6.02046000    2.12469000    1.80342000      0.923064   -0.30829400   -0.50038800
Se    7.05544000    1.93521000   10.44946000     -0.241312   -0.46347000    0.09169400
Se    7.16269000    6.19882000    1.98321000     -0.292048   -0.77556300   -0.21983300
Se    8.35351000    7.48556000   12.26659000      0.651944   -0.97009700    0.11036500
Se    7.49910000   10.57171000    1.23550000     -0.058666    0.28833800    0.05967300
Se    6.42998000   13.40785000   12.92754000      0.069928   -0.54377100    0.32466500
Se    4.80645000   20.55900000    2.55110000      0.426711   -0.03940400   -0.68362900
Se    9.15886000   18.67176000   11.10882000     -0.851883   -0.87994000   -0.20434600
Se   13.88030000    0.94474000    0.00230000      0.617560   -0.95056800   -0.02242500
Se   11.64232000    1.56634000   13.75766000     -0.170207    0.18317700    0.55200300
Se   12.41220000    8.03662000   18.13962000     -0.192947   -0.65776800    0.33464400
Se    9.80383000    8.74392000    9.74476000     -1.825793    0.45815600   -0.25058400
Se   13.02369000   13.66648000    2.26528000      0.239484   -0.76568000    0.15580100
Se   11.82048000   10.71068000    8.49292000     -0.355596    0.13524800    0.70173800
Se   14.08520000   16.84837000    2.06711000      0.082199   -0.71476100    1.04227500
Se   12.43323000   18.23302000   10.65794000      0.979626   -0.53604300    0.17607800
Se   19.33844000    3.16330000    2.24414000      0.216415   -0.55693000    0.46301400
Se   16.00223000    2.25010000   12.11785000      0.460391    0.32065800    0.28937700
Se   15.97753000    7.94643000   17.38650000     -0.180726   -0.25792700    1.52782000
Se   18.03963000    6.02273000   12.40596000     -0.056456   -0.40783600   -0.22554800
Se   18.77707000    9.47363000    0.30514000      0.471351   -0.04555400    0.03872600
Se   17.50557000   13.70478000    6.24781000      0.227537   -0.05191900    0.71424300
Se   20.48990000   19.09159000   18.55708000     -1.655927   -0.66098800    0.50139700
Se   16.46302000   18.11587000    9.19479000      0.116325    0.74315500   -0.36780900
Se    2.15729000    3.15251000    1.42081000     -0.428967   -0.02886000   -0.25211400
Se    5.76742000    6.61369000   10.95011000     -0.016694    0.15760300   -0.07663700
Se    5.01495000   10.83240000    1.87684000      0.865460   -0.30782200    0.00104700
Se    5.19415000   12.25107000    9.91723000     -0.028797    0.22407900    0.91098800
Se    2.45880000   15.37199000    2.45582000      0.983986   -0.70691100   -1.41456100
Se    2.12520000   13.39766000   12.73123000      1.615876   -0.42782300    2.66257900
Se    2.69277000   21.80741000    0.32918000      1.160341    0.08485100    0.34448500
Se    6.43445000   20.82715000    9.78211000     -1.137481   -0.20748300    0.59918300
Se   12.50065000    5.07488000    1.35404000      0.111701    0.32668500    0.93100200
Se    5.59562000    4.62153000    8.13529000      0.671874   -0.01671600    0.29488600
Se   12.02194000   10.59127000    1.16986000     -0.716538    0.31128900    0.34534000
Se    7.46666000   11.66894000   11.19461000      0.552072    0.31796400   -0.44151300
Se    9.73680000   15.38456000    1.73786000      0.186851    1.37336300    0.43807000
Se   12.97165000   12.94487000   11.86065000     -1.322496    0.02001500    0.68875000
Se    9.22444000   21.21012000   18.01046000     -0.030487    0.41771800    0.06220200
Se    8.57548000   22.07839000   12.47829000      0.575237    0.01392700   -0.64929900
Se   15.43602000    4.60307000    0.64435000      0.295828    0.62141600    0.00264300
Se   16.52567000    7.11175000    8.77928000      0.583675   -0.35799700    0.39752300
Se   15.52637000   10.44726000   18.10768000     -0.383441    0.51154400    0.27491900
Se   14.22480000   10.23750000   12.73605000      1.467422    1.63124700   -1.06955300
Se   17.51544000   14.34267000    2.84777000     -0.057636   -0.60371100    0.07518500
Se   14.88201000   12.73669000   10.62162000      1.141431    0.29426700   -0.45717000
Se   17.74287000   21.71400000    1.06371000      1.956498    1.82033200   -0.74925700
Se   14.75194000   20.91851000    8.65815000     -0.001022    0.15922000   -0.03893900
Se   21.12010000    5.19516000    0.27416000      1.403967    0.50734300    0.32003400
Se   21.36654000    4.05124000   11.63075000     -0.076276   -0.52531700    0.54085700
Se   20.12092000    7.00355000    2.04009000      0.156603   -1.13764900    0.09967500
Se   20.39704000   11.07533000   10.10581000     -0.021247   -0.12822700    0.89333500
Se   19.57007000   15.11587000    0.23975000     -1.217097   -0.55281900    0.79301200
Se   20.42907000   15.86522000   12.56170000      0.204710    0.50026500   -0.17182400
Se   20.83991000   22.09494000    3.84238000     -0.174816    0.46007100   -0.34421800
Se   17.15983000   21.10018000   11.64419000      0.392282   -1.02259000   -0.31740400
Se    2.85367000    3.78681000    8.62968000     -0.348591   -0.11464100   -0.88700300
Se    0.37781000    3.67697000   17.10977000     -0.271663    0.34903200   -0.55719500
Se    3.60109000    8.96462000    8.74751000     -0.241095    0.34899800   -0.03897800
Se    0.93720000    9.64190000   17.09001000      0.346430   -0.35289200    0.17495200
Se    3.96076000   17.95757000    8.22679000      0.707420    0.21633600    0.63957000
Se    0.06910000   17.74378000   15.32355000      0.468218   -0.44135800   -0.13399100
Se    2.30262000   20.42234000   12.67953000     -0.627301   -0.01977900   -0.38707800
Se    1.21624000   20.98786000   17.72257000     -0.867552   -0.58012200   -0.90595400
Se    5.67738000    4.04679000    4.80247000     -0.569691    0.24276600    0.75107500
Se    5.54849000    4.78833000    0.27343000      0.246302   -0.24557600    0.14831800
Se    5.99524000   10.01239000    6.25324000     -0.451517   -0.33685600    0.09226000
Se    4.56070000    7.68648000   16.41779000      0.060739    0.11115800    0.90017100
Se    6.31063000   15.83150000   10.74299000      0.720737    0.94465200    0.15619500
Se    6.91584000   16.00614000   17.88915000     -0.950742   -0.94803400    1.00358400
Se   10.52158000   17.98934000    6.45496000     -0.552660   -0.20348800    0.20788000
Se    6.35908000   20.54160000    0.24377000     -0.044019    0.93854000    0.22916400
Se   10.36695000    2.26636000    9.89874000      0.218615    1.00346800   -0.59197700
Se   13.03616000    3.84057000   16.74297000     -0.797941   -0.23888300    0.47812100
Se   13.78109000    8.11269000    6.82705000      0.168075   -0.26835100    0.78514200
Se   12.95988000   10.18167000   16.18017000      0.312621   -0.26866900   -0.30857000
Se   11.97414000   15.13544000    8.16927000      1.117971   -0.12751200   -1.21374500
Se   14.62779000   14.83532000   17.34541000     -0.330396    0.16213800    0.28839600
Se   12.62206000    0.16028000    7.43659000     -0.526042    0.01598600   -1.42966000
Se   15.36812000   20.11596000   17.28686000     -0.159478   -0.15574600   -0.18445000
Se   13.93253000    4.29825000    9.64118000     -1.054575    0.56496500   -0.07023400
Se   20.17542000    1.57471000   15.15392000      0.917760    1.00490800    0.96806900
Se   18.88641000    9.09216000   10.23532000     -0.233054    0.57984900    0.43196300
Se   17.40428000   10.88273000   15.62695000      0.443847   -1.00377200   -1.54807300
Se   15.47407000   16.31580000    6.84600000     -0.739620    0.30794300   -0.73880000
Se   19.48860000   13.53549000   15.68126000      0.012838    0.63507200    0.78112500
Se   18.52545000   20.23479000    7.83210000      0.215030    0.40097900    0.62295100
Se   18.57273000   18.60181000    2.62931000     -0.250284   -0.22448600    1.00755500
Se    4.80860000    0.83085000    7.46749000      0.262622    0.06774200   -0.28772800
Se    4.32029000    3.35482000   17.25765000     -0.186236   -0.21685500   -0.17966000
Se    7.78429000    7.78557000    8.56669000      0.767760    0.46453200    0.06248700
Se    4.79350000    8.69486000   18.77346000     -0.121741    0.03183300   -0.17730400
Se    6.34219000   16.41295000    5.88812000      0.050248   -0.06533400   -0.18929800
Se    5.22529000   12.12110000   17.28373000      0.060721    0.13457900    0.49053400
Se    1.82683000   20.86765000    9.88518000      0.890086   -0.63809900    0.40752800
Se    0.46878000   19.63426000    1.93580000      0.132776   -0.55756600   -0.23876700
Se    8.89145000   21.79207000    8.43218000     -0.106102    0.19517100   -0.11760400
Se    9.95909000    3.03177000    1.29737000     -0.242089    0.75788000   -0.00043900
Se   10.66974000    5.25414000    8.65603000     -0.608884    0.37232600    0.24976600
Se    9.09425000    5.58921000   17.72394000     -1.094524    0.54696200   -0.02684500
Se    9.30723000   12.11502000    5.92835000     -0.343804   -1.30716700    0.36084600
Se    8.05993000   13.79594000   17.82379000      0.273756    0.14367800   -0.50843100
Se   11.94368000   21.14791000   10.39297000     -0.256199   -0.13887000   -0.10869000
Se   11.53054000   14.05738000   17.78792000      0.914439    0.49365000    0.04824700
Se   15.33430000    1.67379000    7.24218000      0.707513    0.85683700   -0.14601600
Se   16.50325000    2.93511000   18.51322000      0.251821   -0.63751000   -0.55823500
Se   15.72051000    5.27723000    6.94750000     -0.330821   -0.50018700   -0.31775900
Se   15.65808000    7.75639000   15.19820000     -0.261043   -0.41360500   -1.85917200
Se   15.68894000   10.76904000    8.64190000     -0.464435    0.30878200    0.55369300
Se   14.48579000   13.09379000    0.27577000      0.103199   -0.00700500   -0.35816600
Se   14.06399000   18.86337000    5.81101000      0.099683    0.03335800   -1.57788100
Se   17.09580000   17.10399000   18.73093000      0.300500    3.16981600    0.02782800
Se   20.68552000    0.67789000    8.00545000      0.221637    0.28067500   -0.34735000
Se    0.99232000    0.49381000   13.02521000     -0.443485   -1.01162300    0.50042200
Se   20.62444000    7.36112000    9.38659000      0.409210   -0.44438200   -1.55504300
Se   20.56773000    7.64165000   16.74974000     -0.282433   -0.43317100    0.01066700
Se   21.92513000   10.53831000    7.02929000     -0.021985   -0.04614900    0.18098600
Se   21.12872000   11.48609000   17.68502000     -0.788475   -0.51635200   -0.45512200
Se   19.40464000   16.82809000    7.78118000     -0.010120   -0.27734900   -0.01610600
Se   19.75534000   17.42239000   15.94705000     -1.274018   -0.22292600   -0.35729500
Se    3.81402000    1.51986000   11.42835000      0.236161    0.26222700    0.21469900
Se    2.83896000    0.91852000   14.89901000     -0.006339    0.02542400    0.37409800
Se   22.32115000    6.67508000    7.26151000      0.742895   -0.33428600    0.45567100
Se    1.14826000    9.58172000   14.18589000     -0.427604    1.37069200    0.68753200
Se    3.23773000   14.76252000    6.87627000     -0.501503   -0.18398500   -0.42178500
Se    1.86769000   13.66099000   16.76508000     -0.202993    0.21035500    0.47653000
Se    0.54794000   17.14481000    9.37789000     -0.564470   -0.16907000   -0.13910100
Se    2.19309000   19.98464000   15.15857000      0.667857    0.29589400   -0.36531900
Se    6.40019000    0.27833000    3.33531000      0.543208    0.35876800   -0.11897400
Se    8.41360000   22.27361000    1.37096000     -0.338217   -0.12943900    0.43224600
Se   10.08750000    8.91271000    6.49666000     -1.164778   -0.24454500    0.05762400
Se    4.64740000    6.00826000   14.51786000     -0.454708   -0.88238800   -0.85021200
Se    5.71281000   12.48524000    4.60553000      0.157793   -0.34744800   -0.15867200
Se   10.16185000   14.09015000   13.69472000     -0.140558   -1.13140300    0.72239000
Se    7.67669000   17.54873000    3.91694000     -0.158990   -0.26730700   -0.40939600
Se    7.37662000   16.52476000   14.94087000      0.542696   -1.36447800   -1.67498800
Se   13.40071000    0.16407000    3.74005000     -0.028775    0.26790600    0.46656000
Se   13.81591000   22.20547000   16.43036000     -0.199699    0.36572200    0.21650300
Se   11.69466000    9.58645000    4.83114000     -0.025037    0.34638100   -0.26248400
Se   11.23247000    6.61451000   15.07210000      0.203511   -0.30532000    0.20766000
Se   12.72565000   12.62346000    5.32190000      0.311702    1.31177800   -0.12198800
Se   13.81440000   13.73561000   14.00773000      0.695259    0.46554300    0.54123900
Se   12.57461000   18.85868000    7.50929000     -0.718236    0.85135500    0.75934800
Se   12.23422000   18.60529000    0.36684000     -0.835312    0.36912900   -0.75599100
Se   20.87833000    1.86612000    5.50462000     -0.114965    0.11567800   -0.37554700
Se   17.64712000    0.39024000   16.50742000      0.140001    0.59547900    1.69093800
Se   19.18868000    5.13343000    6.44228000      0.383904   -0.74962400    0.04096100
Se   18.43730000    5.43382000   15.74075000      0.246697    0.17805400   -0.08151400
Se   19.52484000   11.31343000    4.88801000     -0.471619    0.52449700    0.74640500
Se   17.55048000   13.26308000   11.78617000      0.033555   -0.56612500    0.49850600
Se   17.97305000   17.06479000    4.67641000      0.444204    1.09636200   -0.75007600
Se   17.89471000   19.80634000   14.80630000     -0.506362    0.33646700   -1.75832200
Se    2.87690000    6.74222000    5.55590000     -0.103379   -0.23144800    0.55788900
Se    1.17352000    7.41394000   13.37989000      0.941826   -0.82012500    0.31345100
Se    2.55033000   10.83704000    5.46145000      0.596412    0.63410400   -0.51103700
Se    4.56122000   10.45298000   14.54884000     -0.272254    0.47181900    0.40099600
Se    6.22368000   13.74360000    7.11772000      0.442966    0.44435300    0.46796600
Se    3.42042000   17.78831000   17.48798000      0.467331   -0.62182500    1.35808900
Se    1.00843000   19.57670000    7.18100000      0.663286    0.31567100   -0.14520200
Se    5.07927000   22.36086000   16.01550000     -0.073924    0.97704700    0.09950000
Se    9.27603000    1.02657000    5.57839000      0.105146    0.54698900   -0.33658700
Se    7.92677000    2.76693000   17.97287000      0.329879   -0.15872400   -0.89430500
Se   11.81247000   12.91631000    9.50927000     -0.587439   -0.90252900   -0.42572200
Se    9.57177000   11.20894000   17.07255000     -0.088941    0.47270800    0.94830100
Se    8.59072000   14.32024000    8.54821000      0.217464    0.20812200   -0.03934000
Se   10.84154000   17.71028000   14.52008000      0.985193    0.05872800    0.07713000
Se   11.77534000   19.74923000    4.01079000      0.050969    0.54535200   -0.69381200
Se    9.18640000   17.77917000   17.51979000      0.926517    0.51593600    0.71357000
Se   12.30786000    3.36495000    6.59081000     -0.704276   -0.13948800    0.14999300
Se   17.64692000    3.21342000   15.75838000     -0.583724   -0.00369700    0.18031300
Se   16.05151000    8.54468000    6.15391000      0.542900    0.07492100   -1.12097600
Se   16.43035000    9.32711000   12.05564000     -0.160562   -0.53815200    0.53025700
Se   16.49574000   11.57765000    5.71846000     -0.011218   -0.01095000   -0.06184100
Se   15.42448000   16.90301000   15.08803000     -0.486219   -0.23141900    0.63603200
Se   17.04212000    2.96729000    3.73760000     -0.004130   -0.05073000   -0.04096900
Se   18.31542000    3.33636000   12.09070000     -0.029058    0.39762300    0.67982800
Se    1.79770000    2.43526000    6.35811000      0.481417    0.62803800    0.67074700
Se    0.84807000    4.63409000   14.95680000      0.196798   -0.73234900   -0.17050400
Se   19.01556000   12.69033000    7.97619000      0.007947    0.22348500    0.38315500
Se   20.84918000   12.10227000   14.00029000      0.455633   -1.13350300    0.41379500
Se   21.60665000   13.60478000    7.32470000     -0.577275    0.42794500   -0.20493900
Se   20.27351000   18.29826000   12.81689000     -0.410044   -0.08800800   -0.57119700
Se   20.01367000   18.91708000    9.27997000      0.192203    0.21683400   -0.55919100
Se   20.69389000   20.62304000   15.78555000      1.166083    1.02013700    0.17864400
Se    3.19276000    1.27528000    4.15664000     -0.163855   -0.20750700    0.14607700
Se    6.69660000    2.90096000   15.87135000      0.033562    0.23832800    0.13820700
Se    1.51004000    6.20069000    0.24703000      0.223480    0.95094100    0.24048000
Se    5.28569000    8.94297000   12.82093000      0.830001   -0.23693100   -0.28574500
Se    2.38604000   12.61851000    2.08700000     -0.442106    0.57579500    0.61765000
Se    4.90771000   15.11488000   15.01059000     -0.227295   -0.83945400   -0.35064600
Se    4.14938000   18.32965000    2.48409000     -0.532916   -0.68771900    0.08990900
Se    4.66445000   18.37855000   12.49991000     -0.106515    0.14193200   -0.56306500
Se   10.64570000    1.04524000    2.25507000     -0.709990   -1.26620700   -0.66166500
Se   10.39190000    0.18633000   16.34396000      0.176064    0.85667800    0.45894800
Se    9.65885000    7.56381000    2.77953000      0.782821   -0.52738400   -1.00588300
Se    7.86139000    8.98594000   15.92811000     -0.256001   -0.07997500   -1.11109700
Se   10.66382000   11.76839000    2.91360000      0.043327   -0.81608100    0.47019900
Se   10.30918000   11.28293000   11.66221000     -0.443566   -0.30956700    0.31522100
Se   10.26747000   19.14065000    2.07845000     -0.047394    0.46310200    0.13334000
Se   14.80201000   18.70324000   13.38640000      0.362691   -0.03174100   -0.08771200
Se   15.04346000    3.26441000    5.44358000      0.683035    0.13138500    0.69021400
Se   13.69702000    1.55993000   15.07339000      0.505096    0.12235400   -0.16412400
Se   15.31102000    6.11384000    3.20374000     -1.315851    0.47870200   -0.73575600
Se   12.65773000    7.50850000   11.41380000      0.832538    0.27544200    0.44261900
Se   16.08931000   10.78891000    2.72050000     -0.142124   -0.30548900   -0.03960900
Se   17.30820000   14.27297000   16.35491000     -1.010262    0.20582700    0.63949700
Se   15.12644000   15.56518000    4.39320000     -0.384555    0.35826900    0.12428200
Se   14.49182000   22.45153000   12.66343000     -0.216602   -0.59358200    0.11233000
Se    2.19437000   21.39243000    5.75418000     -1.136740   -0.56203300    0.50434300
Se   19.46334000    0.96173000   13.07053000     -0.386832   -0.61343800   -1.06972300
Se   22.45489000    7.22854000    3.89480000     -0.134404    0.27777500   -0.59016900
Se   19.73508000    8.67275000   13.81319000      0.368925    0.14239200    0.08601000
Se    1.28632000   13.88245000    5.84443000      0.252041    0.55944100   -0.16411900
Se   22.49111000   15.31039000   15.26144000      0.387125    0.22338700   -0.25326100
Se   21.55712000   16.81889000    5.39759000      0.313670    0.49517300   -0.37486100
Se   21.29391000   20.95648000   10.87321000      0.013777   -0.55203300    0.11645400
Se    2.29467000    4.85524000    3.47426000     -0.132848    0.00670400   -0.15571200
Se    2.84898000    5.33222000   11.64091000      0.250425   -0.14177300    0.49209000
Se   21.57741000   10.61370000    4.03551000      0.438075   -0.26932900   -0.77441000
Se    1.20729000   10.76681000   11.90827000      1.529610   -0.42559600   -0.51836500
Se   22.33651000   15.84733000   18.57950000      1.655414    0.67956600    0.62828000
Se    3.80287000   15.21743000   12.59145000     -0.132730    0.01454700    0.28412000
Se    1.82953000    0.45177000    2.23650000      0.074440    0.53985700    0.62804700
Se    4.95689000   20.49218000   14.57158000     -0.056781   -0.72769100    0.10437700
Se    9.95442000    4.98797000    4.92178000     -1.365667    1.03337900   -0.52458800
Se    8.56105000    2.18897000   13.98589000     -0.039046    0.36544200    0.35325700
Se    6.99340000    6.81257000    5.13653000      0.072485    0.80564000    0.25896400
Se    7.94224000   12.51844000   14.43780000      0.263725    0.43896500    0.85040300
Se    5.77724000   15.03814000    1.56605000      0.041517   -0.31998800    0.45719100
Se   11.11468000   15.70402000   11.10871000     -0.437196   -0.77971300    0.70052800
Se    7.67803000   19.96632000    5.93765000     -0.060899    0.76839100    0.82616100
Se    7.80334000   20.50333000   15.17432000      0.043183   -0.58224000   -0.33186600
Se   14.63802000    1.95640000    2.78652000      0.032070   -0.42501700   -0.59939100
Se   10.89317000    4.63922000   11.97549000     -0.315083   -0.46297300    0.02980000
Se   13.67421000    8.64498000    3.38606000      0.421824   -1.34225500   -0.82623600
Se   10.66453000   10.38879000   13.90660000      0.237035   -0.01530300   -0.57650800
Se    9.28257000   14.16927000    4.97132000      1.577694    0.93200100   -0.12399600
Se   15.01413000   15.53330000   10.78518000      0.098341   -0.59037800    0.05701200
Se   14.83937000   19.90700000    1.88056000     -1.017680    0.11043300    0.56114300
Se   13.30417000   20.62647000   13.82239000      0.278824    0.16873400   -0.11345200
Se   17.77952000    5.79925000    1.22549000      0.011280    0.23249300   -0.21466100
Se   14.38735000    4.82780000   13.38263000      0.462335   -0.01201800    0.22365600
Se   18.57007000    8.20829000    3.57849000     -0.621720    0.14424900   -0.32976000
Se   21.29554000   13.27968000   12.08956000     -0.236503    0.90998800   -1.25901200
Se   21.01556000   14.20499000    3.19499000      0.714760    0.91793300    0.67366800
Se   16.89228000   16.77234000   12.08589000      0.509227   -0.14281300    0.24308500
Se   17.01143000   20.80477000    5.31262000     -0.575552    0.40686500   -0.57601800
Se   16.42228000    1.15969000   10.05725000      0.021749    0.30033200   -0.37939100
