384
22.54784000 22.54784000 18.93360000
Ge    5.16811000    3.95523000   10.73651000     -0.384720    0.13204700   -0.37423600
Ge    4.60305000    6.55599000    1.62408000     -0.423834    1.03587400    0.33673200
Ge    4.21065000   11.32991000    7.79914000     -0.421934   -0.59254600   -0.65461400
Ge    6.78864000   10.25397000   17.79584000      0.013782    0.08932300    0.64824700
Ge    5.02194000   14.79309000    9.14525000     -1.180510   -1.09732400   -0.90154200
Ge    8.03420000   17.33361000    1.20171000      0.612452   -0.25356300   -0.26933000
Ge    8.14222000   19.33060000    8.93877000      0.345042    0.29602200   -0.24886700
Ge    5.04546000    0.34042000   18.46896000      0.503018   -0.37319000   -0.10298700
Ge    8.03733000    5.55370000    9.52073000     -0.249629    0.17596000   -0.64675600
Ge   11.40931000    5.47903000   18.13039000      1.615030    0.01591500   -0.84917300
Ge   11.74262000    7.48478000    9.20765000      0.106875   -0.75757100   -1.89030700
Ge   10.47807000   12.36507000    0.30402000     -0.997215   -0.85071000   -0.63816000
Ge   10.17597000   16.65692000    8.82553000     -0.875577   -0.25123400   -0.30001800
Ge   12.21376000   15.51791000    1.04560000     -0.489321    0.92569900   -1.05862400
Ge   10.05064000    0.01064000   10.37137000     -1.280814   -0.55733400    0.77723300
Ge   15.54963000   21.61174000    0.28625000     -1.403575    0.19402400   -0.86936800
Ge   18.09456000    5.55987000   10.05184000     -0.893502   -0.39896900    0.52938500
Ge   18.36439000    6.79667000   17.89165000      0.184754    1.03019500   -0.52736100
Ge   18.70249000   14.91643000   10.53452000      0.031515    0.12808000    0.40167300
Ge   18.17593000   11.54035000   17.97942000      0.074187    0.33277300   -0.09401200
Ge   13.77662000   16.90796000    8.74316000      0.222114   -0.87890600    0.46487700
Ge   16.80354000   14.86756000    0.06367000      0.011692   -2.27620600   -0.09085500
Ge   16.14817000    3.75008000    9.08117000      0.245666   -0.70148100   -0.64719700
Ge   19.08002000    3.99708000   18.62830000     -0.424411   -0.68869100    0.79472200
Ge    0.92974000    5.06693000   10.17300000     -1.003915   -0.22773800   -0.43106200
Ge   21.80124000    4.71956000    3.17905000     -0.059815    0.17865100   -0.36168100
Ge    0.43329000   10.65647000    9.23528000     -0.245010   -1.30737500    0.23947100
Ge   21.41964000    8.92876000   18.71483000      0.233363    0.69874200   -0.57418800
Ge   20.93923000   15.32570000    9.18513000      0.961867    0.22401200   -0.40538200
Ge    4.22741000   15.06100000   17.90211000     -0.402488    1.43468400   -0.59573700
Ge   18.80691000   22.41263000   10.38322000     -0.047592    0.03542200   -0.39480300
Ge   20.93422000   20.82277000    1.40777000     -0.170824   -0.52432400    0.60537700
Ge    2.41679000    6.40624000    8.17916000     -0.356153    0.27906000   -0.56457000
Ge    1.86829000    7.44401000   17.00682000      0.171402   -0.62994200   -0.26875900
Ge   20.25146000    8.72410000    5.33165000      0.809597    0.17535500   -0.21056300
Ge    3.75531000   12.83608000   15.59592000     -0.662667    0.60957700   -1.50259600
Ge    5.29703000   19.21005000    4.73168000     -0.330874   -1.03810400   -0.13872000
Ge    0.15775000   18.50768000   17.88101000      1.202476   -0.73507700    0.30315400
Ge    4.30499000   19.47316000   10.12821000     -0.339990    0.32047300    0.32326900
Ge    2.03532000    2.04637000   17.34580000      1.117556   -0.81795900    0.13664000
Ge    9.67382000    3.46925000    6.80309000      0.315769   -0.77644000    1.15627700
Ge    6.98589000    6.73654000   16.02289000     -0.131665   -0.43255800    0.52126200
Ge    7.90348000   11.07242000    3.88558000      0.296759    0.48056200    0.32838000
Ge   10.03458000    7.96896000   16.84637000      0.588072    0.08749800    0.26099900
Ge    6.39806000   17.46840000    8.33544000     -0.077309   -0.68406600    0.08012000
Ge   10.05980000   15.49549000   16.16815000     -0.748254    0.31811200   -0.34379800
Ge   10.61017000   21.58734000    6.48299000     -0.191886   -0.43139500    0.34187900
Ge   10.23138000   21.26110000   14.31337000     -0.769736   -0.10488900    0.08057400
Ge   12.20962000    7.06504000    5.02335000      0.432970    0.57359100   -0.17783600
Ge   15.47574000    4.90508000   15.76910000     -0.420122    0.25415900   -0.30232200
Ge   13.56772000   10.77415000    6.91323000      1.059843   -0.21237700   -0.95535200
Ge   15.15289000   11.92245000   16.00104000      0.351139    0.09475600   -0.24068500
Ge   12.72994000   15.29396000    5.55111000      0.725619   -1.53258200    0.39587700
Ge   14.71784000   18.00285000   18.87856000      0.194487   -0.00558900   -0.58936300
Ge   13.49528000    0.37297000    9.67907000      1.322951    0.35721200    1.14766600
Ge   16.99219000   22.39794000   14.29770000      0.137499   -0.34133800   -0.59023000
Ge   20.14233000    4.64441000    8.84898000      0.471994    0.04354000   -0.09354900
Ge   21.19605000    6.62090000   13.49070000     -0.575717   -0.90819000    0.02452000
Ge   18.01228000   10.05941000    7.90028000      0.150687    0.13875600   -0.33564500
Ge   20.61429000   15.39746000   17.02649000     -0.654501    0.00861700   -1.13413400
Ge   19.64086000   15.26274000    5.47104000      0.557478    0.29122100   -0.44616900
Ge   17.03587000   18.15082000   16.36103000      0.703420   -0.10892500    0.33313200
Ge    0.74784000    0.42096000    7.56479000     -0.166129   -0.13588300   -0.50936200
Ge   18.47606000   20.61417000   17.02580000      0.345658    0.69692200    0.48600900
Ge    6.52343000    2.67551000    6.77175000      0.149364   -0.02179300    0.34451900
Ge    3.36458000    3.54092000   13.81296000     -0.062595    0.35698700    0.21578000
Ge    1.04834000    9.07456000    6.07873000     -0.263051   -1.16480500   -0.11416200
Ge    3.39083000    8.30398000   11.22215000     -0.068600   -0.44743800   -0.32086400
Ge    0.80883000   15.91616000    3.93046000     -0.287405   -0.69332600    1.35968100
Ge    2.74903000   17.48949000   15.22756000     -0.051192    0.01226600   -0.19515500
Ge    2.47839000    0.70505000    9.43969000      0.845467   -0.34870700   -0.44788600
Ge    6.86601000   18.17965000   16.46267000      0.303495    1.75573200    0.60557100
Ge    7.69794000    4.00909000    3.39499000      0.777645   -0.04420800   -0.98832200
Ge   10.30304000    2.82007000   16.18003000     -0.646222   -0.23639000   -0.11250200
Ge    8.50802000    8.68102000    4.44708000     -0.534307   -0.16629600    1.89517800
Ge    8.04982000    9.66200000   13.37173000      0.005868    1.39790100   -0.09137900
Ge    7.08927000   14.47943000    4.29553000     -1.220650    0.82137100   -0.60176300
Ge   12.24871000   12.58768000   15.72583000     -0.988310   -0.34027400   -0.69121000
Ge    7.94811000   20.09232000    3.57067000      0.227687   -0.16995100   -1.28588400
Ge    9.39254000   16.33096000   13.16905000     -0.687137    0.21823000   -0.80338200
Ge   11.62498000    1.58715000    4.98785000      0.515964    0.29996100   -0.00792700
Ge   12.21374000    4.24512000   14.10218000     -0.759131   -0.09741100    0.66511900
Ge   17.14941000    6.13576000    4.54863000      0.699227   -0.19390700    1.11645400
Ge   13.22742000    8.58252000   13.97981000     -0.282535   -0.60930100    1.41071100
Ge   15.05202000   13.04089000    3.97706000     -0.321709   -0.02156600   -0.03218200
Ge   13.22047000   16.17897000   12.58962000     -0.342294    0.38497000    0.15555900
Ge   11.91176000   17.33130000    4.35557000     -0.244259    0.77540000   -0.38168400
Ge   11.08005000   19.64331000   17.08418000     -0.094128   -0.76546900    0.09597700
Ge   22.37924000    3.86387000    5.85817000     -0.640359   -0.10806800   -0.33310200
Ge   22.19418000    2.41465000   13.71382000     -0.829515    1.33713100    0.13719000
Ge   18.94418000    7.33294000    7.34786000     -0.385399    0.45493200   -0.00417600
Ge   18.33160000   10.68156000   13.02634000      0.057835    0.89609800    0.37417100
Ge   21.35097000   16.83453000    1.87080000     -0.440442   -0.09858400   -0.35559200
Ge   18.33789000   15.65297000   14.28172000      0.137779    0.15899600   -0.07615600
Ge   19.32570000   20.03357000    5.41689000     -0.011623   -0.31908900   -0.45057500
Ge   22.26655000   20.57753000   13.29766000      0.285756    0.19234400   -0.14751200
Ge    4.27419000    3.29573000    2.81111000     -0.925467    0.12261600    0.59450500
Ge    6.22956000    1.90577000   12.94572000     -0.382063   -0.19588600   -0.29547400
Ge    4.78862000    8.13057000    4.75711000      0.679182    0.31463500   -0.32454000
Ge    6.90826000    5.16361000   13.95529000     -0.022325   -0.26878000   -0.17959000
Ge    4.38307000   13.06274000    0.68719000      0.204216   -0.38638700    0.38198800
Ge    3.91062000   11.56142000   12.39064000      0.352052   -0.15888700   -0.52910900
Ge    4.79465000   21.68425000    5.67780000     -0.349808    1.11756400    0.25343400
Ge    7.21474000   19.68995000   12.50291000     -0.215734    0.65323400    0.05709800
Ge   11.36711000    3.91360000    3.39096000      1.154117   -1.26760300   -1.21536600
Ge    8.13122000    3.74242000   11.69710000      0.329436    0.34125300    0.43000800
Ge   11.92012000    7.56791000    1.66000000      0.773608    0.71323200    0.28430000
Ge   10.71311000    6.89658000   12.75489000     -0.430118    0.54114700   -0.40865600
Ge    8.21397000   13.41530000    1.54424000     -0.288612   -0.28536400   -0.50639200
Ge    8.47390000   14.47096000   11.18358000      0.189046   -0.45614900   -0.89934500
Ge   11.52516000   21.58214000    0.52998000      0.155291   -0.03922400    0.41895000
Ge   11.01199000   19.73635000   12.28014000      0.636967   -0.29499400    0.73198600
Ge   22.02136000    0.16739000   17.01013000     -0.186973   -0.05596700   -1.26224700
Ge   12.63587000    2.66183000   10.82599000      0.312474   -0.73019600    0.95601900
Ge   16.50419000    9.05753000    1.02602000      0.030025   -0.57006100    0.58095900
Ge   14.86823000    8.87249000   10.13141000     -0.264023    0.01262900   -0.30758500
Ge   18.16888000   12.06383000    2.88969000      0.415621   -0.23167900   -0.84810000
Ge   16.80946000   15.66623000    8.69659000      1.031535   -0.39097200    0.75393000
Ge   16.83424000   20.58837000    2.80287000      1.228202   -1.36050600    2.04651000
Ge   14.86227000   19.42317000   10.62945000     -0.156980    0.01453200    0.34757400
Ge   21.17109000    1.29957000    1.94069000      0.276258    0.93035100    0.50435500
Ge   21.38905000    0.79417000   10.40632000      0.028044    0.85453000    0.51872500
Ge    0.96913000    8.35500000    1.58531000     -0.267989   -0.29064400    0.21849500
Ge   21.52022000   10.28999000   12.57696000     -1.118186   -1.85300900   -0.21280700
Ge   20.53743000   12.79032000    1.26104000     -0.906858   -0.21596200    0.17208000
Ge    0.85250000   14.43929000   11.06548000     -1.033182   -0.09076800   -1.77173300
Ge    0.20026000   19.30913000    4.53421000     -0.129052   -0.07580300    0.24029000
Ge   18.18182000   18.79769000   11.19225000      0.256033   -0.09650700    0.30791400
Se   20.26829000    0.38013000   18.69718000      0.018621    0.08170300    0.35531100
Se    1.31529000    2.38460000   10.96648000     -0.353728    0.10837500   -0.11778800
Se    2.64454000    9.93033000    3.01924000     -0.202772   -0.13752200    0.11063400
Se   22.27962000    7.45439000   11.39870000      0.354399    0.41382000   -0.30937600
Se    0.17588000   11.97109000    0.55558000      0.396672    0.36296700   -0.36417100
Se    1.65157000   12.62037000    9.01161000      0.608685    1.08035600    0.23622800
Se    2.08297000   17.64883000    5.16798000      0.249020    0.65110400   -0.52694800
Se    1.94218000   16.59864000   11.35716000     -0.058218    0.54149600   -0.22001500
Se    6.03216000    2.10540000    1.74789000      0.856405    0.10057600   -0.75620200
Se    7.00839000    1.94529000   10.42380000     -0.069787   -0.19384600    0.39301700
Se    7.17976000    6.17609000    2.00442000     -0.548894   -0.64260400   -0.35156300
Se    8.38477000    7.52996000   12.30145000      0.325900   -1.44964300   -0.26556700
Se    7.54073000   10.56785000    1.27024000     -0.176985    0.37393700    0.08043800
Se    6.41958000   13.39305000   12.94375000      0.049298   -0.53983600    0.34448800
Se    4.81697000   20.60440000    2.53785000      0.481833   -0.33407500   -0.37238000
Se    9.12927000   18.66377000   11.17124000     -0.788432   -0.84275200   -0.51860000
Se   13.87811000    0.97484000    0.06711000      0.427193   -0.84157500   -0.13284900
Se   11.68654000    1.60655000   13.74068000     -0.250348    0.11774800    0.44358400
Se   12.41950000    7.98127000   18.14286000     -0.202413   -0.52408300    0.26845600
Se    9.82662000    8.74841000    9.77816000     -1.858025    0.52958200   -0.37911200
Se   12.96438000   13.63533000    2.26064000      0.521855   -0.90861000    0.28988800
Se   11.84236000   10.75016000    8.48827000     -0.909027    0.01143300    1.06292400
Se   14.05783000   16.84984000    2.07496000      0.149890   -0.60325700    1.00024400
Se   12.37493000   18.17113000   10.59872000      0.978374   -0.12557100    0.34749900
Se   19.36838000    3.22073000    2.25232000      0.166581   -0.53023200    0.34922100
Se   16.00486000    2.22740000   12.06380000      0.320603    0.46179800    0.76935500
Se   15.92386000    7.96880000   17.49827000     -0.280083   -0.49892500   -0.03824400
Se   17.98270000    6.09149000   12.40819000      0.142531   -0.81521300   -0.53179000
Se   18.80711000    9.50670000    0.27086000      0.062719   -0.18433300    0.28995500
Se   17.53156000   13.68352000    6.26816000      0.231690    0.36433200    0.61333000
Se   20.48245000   19.11857000   18.58821000     -1.127501   -0.45948300    0.72232300
Se   16.45493000   18.11938000    9.10761000     -0.063468    0.99383200    0.06505400
Se    2.18396000    3.14784000    1.46476000     -0.410165   -0.07255800   -0.35588400
Se    5.73223000    6.62772000   10.91766000      0.086429    0.12277900   -0.02487800
Se    4.95389000   10.83492000    1.83951000      0.933758   -0.51767500    0.21963300
Se    5.16999000   12.23008000    9.94044000     -0.052801    0.21655500    0.71886900
Se    2.49016000   15.37304000    2.43006000      0.400096   -0.54760000   -0.79981200
Se    2.09508000   13.35944000   12.69781000      1.394685    0.02830500    2.02468300
Se    2.75892000   21.78388000    0.25658000      0.567455    0.07232200    0.55706900
Se    6.39569000   20.84806000    9.81604000     -0.987761   -0.20375700    0.42062600
Se   12.51210000    5.11272000    1.31457000      0.099059    0.04027600    1.23902400
Se    5.57442000    4.65616000    8.09642000      0.745573   -0.04303600    0.31389700
Se   11.97946000   10.62016000    1.18885000     -0.102163   -0.38793200   -0.07328400
Se    7.47309000   11.68117000   11.19096000      0.430143    0.38639000   -0.48592300
Se    9.75608000   15.37729000    1.71122000     -0.015866    1.39996000    0.60516200
Se   12.96882000   12.88297000   11.90017000     -0.646126    0.32537200    0.81381100
Se    9.20743000   21.17089000   18.03514000      0.020930    0.60260500   -0.01804400
Se    8.51257000   22.09147000   12.53121000      0.559794   -0.11233400   -0.80363400
Se   15.40726000    4.59269000    0.71181000      0.154937    0.91989900    0.15375000
Se   16.54369000    7.13703000    8.80640000      0.607418   -0.57889500    0.20197000
Se   15.48865000   10.46041000   18.10709000     -0.105463    0.38203100    0.29402800
Se   14.20043000   10.28062000   12.69723000      1.493137    1.31339400   -0.99070300
Se   17.56761000   14.36831000    2.84672000     -0.180728   -0.21883800    0.10119400
Se   14.87616000   12.70761000   10.54778000      0.834463    0.36333000   -0.07588900
Se   17.76523000   21.77029000    0.99810000      0.848854    0.95217500    0.07370500
Se   14.77609000   20.90001000    8.65316000      0.009496    0.19804900    0.00658100
Se   21.12797000    5.19229000    0.24398000      1.170380    0.45823800    0.46982700
Se   21.30141000    4.00577000   11.61562000     -0.069210   -0.60640500    0.64012900
Se   20.14838000    7.01177000    2.08866000      0.142536   -1.03898500    0.07849900
Se   20.41553000   11.02854000   10.14218000      0.007222    0.15634100    0.83464000
Se   19.53521000   15.05918000    0.22492000     -1.089013   -0.47398600    0.79831100
Se   20.40236000   15.93712000   12.52318000      0.340508   -0.04701200   -0.05071700
Se   20.87713000   22.16061000    3.83723000     -0.322801    0.32426800   -0.17721800
Se   17.16269000   21.08855000   11.64258000      0.169219   -0.94493300   -0.27528700
Se    2.85048000    3.79790000    8.63298000     -0.141345   -0.19958700   -0.80190100
Se    0.35336000    3.68725000   17.14074000     -0.641663    0.60268400   -0.48948600
Se    3.59959000    9.00594000    8.74737000     -0.352251    0.05187900   -0.01024900
Se    0.94085000    9.64218000   17.05777000      0.199835   -0.13293000    0.33654600
Se    4.00141000   17.95001000    8.23070000      0.215891    0.13607700    0.37734100
Se    0.05887000   17.71601000   15.36309000      0.415425    0.25352800   -0.36875300
Se    2.35394000   20.38012000   12.68197000     -0.920223    0.00821800   -0.25941700
Se    1.14791000   21.01813000   17.71994000     -0.395303   -0.70072100   -0.54023900
Se    5.70455000    4.06573000    4.76354000     -0.951472    0.11344600    0.93236100
Se    5.53217000    4.81027000    0.28101000      0.439777   -0.53907200   -0.15478900
Se    5.90772000    9.96554000    6.23725000     -0.109727   -0.39444400    0.10540300
Se    4.63173000    7.68758000   16.39157000     -0.189490    0.28701300    1.00408700
Se    6.33680000   15.75852000   10.79610000      0.753280    1.40558500    0.41106300
Se    6.91414000   16.03023000   17.91732000     -0.718108   -0.72696400    0.74896100
Se   10.50898000   17.99053000    6.46144000     -0.218094   -0.21677100    0.22941000
Se    6.39004000   20.51950000    0.22129000     -0.013007    0.91781400    0.29688200
Se   10.35515000    2.25820000    9.91429000      0.028268    0.83440800   -0.66080700
Se   13.05259000    3.79612000   16.75590000     -0.912978   -0.07433700    0.31802400
Se   13.82705000    8.10226000    6.88533000      0.043512   -0.33472800    0.69013900
Se   13.02785000   10.17120000   16.18741000      0.083723   -0.00679600   -0.51433600
Se   11.99160000   15.07541000    8.11516000      0.500019    0.35925500   -0.91235300
Se   14.60599000   14.91144000   17.36283000     -0.218341   -0.04152900    0.27301400
Se   12.65098000    0.13814000    7.50808000     -0.869965    0.01724200   -2.21576800
Se   15.35520000   20.08388000   17.27918000     -0.055882    0.07256800    0.05783100
Se   13.90753000    4.29994000    9.72318000     -0.349845    0.95244500   -0.54812600
Se   20.18306000    1.53667000   15.14445000      1.028946    1.05891500    1.04058500
Se   18.89650000    9.13944000   10.31124000     -0.281831    0.26774600   -0.02714700
Se   17.43682000   10.82618000   15.57409000     -0.012825   -0.60099400   -0.78222400
Se   15.43551000   16.32287000    6.85263000     -0.588322    0.17571100   -0.87874800
Se   19.51523000   13.51162000   15.64295000     -0.464199    0.91203900    0.91377200
Se   18.53420000   20.23488000    7.83312000      0.046397    0.54584900    0.64598300
Se   18.55427000   18.62807000    2.64738000     -0.167455   -0.24853500    0.87594600
Se    4.86682000    0.90468000    7.47678000      0.052895   -0.23960900   -0.17596300
Se    4.33626000    3.32503000   17.21141000     -0.322801   -0.30447400   -0.00903400
Se    7.80538000    7.84275000    8.53877000      0.823085    0.22047300    0.24895500
Se    4.77814000    8.74207000   18.76039000     -0.094689   -0.12482600   -0.27813100
Se    6.35922000   16.46192000    5.89244000     -0.060661   -0.01990500   -0.13860800
Se    5.19681000   12.17480000   17.28203000      0.545102   -0.17672700    1.00575400
Se    1.85631000   20.80754000    9.82512000      0.910192   -0.43479200    0.32332200
Se    0.48588000   19.64862000    1.96220000      0.404912   -0.59523100   -0.16790900
Se    8.86764000   21.78710000    8.41042000      0.057841    0.22115000   -0.14677700
Se    9.94453000    3.01952000    1.31124000     -0.266506    0.90710100   -0.03275800
Se   10.71408000    5.26969000    8.67929000     -0.671294    0.13638900    0.16979300
Se    9.11791000    5.58890000   17.72246000     -0.963426    0.58817100    0.01283400
Se    9.32713000   12.08617000    5.90223000     -0.351171   -0.85891300    0.01042700
Se    8.07519000   13.81286000   17.86343000      0.015988    0.24189400   -0.64955600
Se   11.95398000   21.19164000   10.41287000     -0.465708   -0.48013600    0.04786400
Se   11.49774000   14.01296000   17.78771000      1.236512    0.69198000    0.08015800
Se   15.29509000    1.63885000    7.20113000      0.718903    0.79453600    0.03175700
Se   16.48506000    2.96069000   18.58915000      0.471230   -1.01456000   -0.67772400
Se   15.70693000    5.26821000    6.97540000     -0.348573   -0.32636600   -0.32627000
Se   15.66876000    7.74466000   15.18288000     -0.145428   -0.33981300   -0.53977700
Se   15.72017000   10.76913000    8.66607000     -0.595009    0.35910100    0.34257100
Se   14.45365000   13.08545000    0.29675000      0.118110    0.22227700   -0.43415300
Se   14.04243000   18.88312000    5.82000000      0.130066    0.04337200   -1.73601700
Se   17.09156000   17.11239000   18.73669000      0.559496    2.49857400    0.08343700
Se   20.71132000    0.70510000    8.00663000      0.024223    0.29540300   -0.39992300
Se    1.03471000    0.50665000   13.04112000     -0.282026   -1.17487700    0.51792400
Se   20.58080000    7.32729000    9.37898000      0.558358   -0.28756100   -1.18987800
Se   20.63192000    7.60005000   16.79993000     -0.260031   -0.36698200    0.22165600
Se   21.90284000   10.56969000    7.01255000     -0.181574    0.09826200    0.31271800
Se   21.08843000   11.43646000   17.62224000     -0.403995   -0.31326000    0.12649300
Se   19.39565000   16.86352000    7.78256000     -0.001244   -0.40776700   -0.08178200
Se   19.73809000   17.44012000   15.93919000     -1.145593   -0.59253900    0.01212700
Se    3.83323000    1.47224000   11.45513000      0.214230    0.33908800    0.14366900
Se    2.83000000    1.01117000   14.92340000     -0.132140   -0.05648700    0.23346000
Se   22.37047000    6.72384000    7.30460000      0.678180   -0.22553400    0.32408500
Se    1.08938000    9.62298000   14.17810000     -0.247191    0.64338400    0.63478900
Se    3.27804000   14.78741000    6.79902000     -0.666136   -0.36338400   -0.37582400
Se    1.88286000   13.64398000   16.76185000     -0.246435    0.19664900    0.52163700
Se    0.56216000   17.08402000    9.36945000     -0.594702   -0.02969600   -0.21766700
Se    2.26363000   20.00473000   15.12755000      0.689565    0.41629500   -0.36096700
Se    6.36608000    0.35408000    3.30011000      0.639521   -0.09786400    0.15031700
Se    8.37534000   22.37046000    1.38582000     -0.238439   -0.56319900    0.42716100
Se   10.02891000    8.90920000    6.49353000     -1.171225   -0.13449500   -0.25575400
Se    4.63868000    5.96593000   14.51400000     -0.479742   -0.88651000   -0.81307000
Se    5.72383000   12.46141000    4.59624000      0.222317   -0.48154900   -0.20415000
Se   10.19553000   14.04403000   13.68969000     -0.257834   -0.71375100    0.56540600
Se    7.70768000   17.54966000    3.98827000     -0.043725   -0.35877900   -0.65767500
Se    7.44209000   16.51801000   14.91521000      0.379009   -1.15737800   -1.26096900
Se   13.45023000    0.20231000    3.70547000     -0.266659   -0.27988100    0.79918600
Se   13.85387000   22.17965000   16.47161000     -0.289192    0.44649100    0.04698000
Se   11.75849000    9.55596000    4.85333000     -0.392201    0.48268400   -0.00778700
Se   11.27463000    6.54016000   15.03380000      0.051099   -0.02163800    0.58931900
Se   12.71507000   12.68276000    5.31768000      0.445180    0.98510200    0.03438000
Se   13.86145000   13.82063000   14.05546000      0.409546    0.24243000    0.16091800
Se   12.63121000   18.82207000    7.56764000     -1.170040    1.04279400    0.43257300
Se   12.27022000   18.61731000    0.34503000     -0.866490    0.42918200   -0.70938600
Se   20.82416000    1.88428000    5.50346000      0.023023    0.23356100   -0.39844200
Se   17.59436000    0.44433000   16.54905000      0.096165    0.06996600    0.91218400
Se   19.18844000    5.11699000    6.49023000      0.430466   -0.48327300    0.02121100
Se   18.44016000    5.42385000   15.74405000      0.401692    0.42329900   -0.19443500
Se   19.52311000   11.30026000    4.87966000     -0.837130    0.74787400    0.53154200
Se   17.57769000   13.26674000   11.78628000     -0.180629   -0.53990800    0.51478800
Se   17.97733000   17.05209000    4.67643000      0.298097    1.15123900   -0.70371600
Se   17.87914000   19.83143000   14.77283000     -0.555762    0.23354200   -1.38749200
Se    2.82043000    6.79649000    5.52535000      0.013600   -0.21341500    0.53863700
Se    1.22028000    7.36232000   13.39810000      0.474448   -0.21849800    0.24331300
Se    2.56346000   10.80041000    5.45336000      0.374721    0.58240600   -0.44340600
Se    4.58059000   10.41467000   14.60661000     -0.396356    0.40001300    0.43039600
Se    6.27075000   13.76028000    7.13000000      0.528139    0.46348400    0.65039400
Se    3.41879000   17.78025000   17.53019000      0.186455   -0.75441900    0.41779700
Se    1.04411000   19.55707000    7.17437000      0.562872    0.43426500   -0.04576700
Se    5.13374000   22.33887000   16.00855000     -0.047594    1.19901300    0.23160300
Se    9.24308000    1.01624000    5.57857000      0.277104    0.50137600   -0.17029900
Se    7.90611000    2.73900000   17.94424000      0.389617   -0.17276800   -0.83674500
Se   11.85527000   12.92535000    9.53837000     -0.585402   -0.62801300   -0.26043800
Se    9.56547000   11.22399000   17.10352000     -0.066771    0.38399400    0.78782900
Se    8.60529000   14.32623000    8.46572000      0.067662    0.19032700    0.18829000
Se   10.80215000   17.69024000   14.48536000      1.177757    0.32172900    0.21342200
Se   11.79764000   19.74415000    4.01261000      0.025105    0.36136600   -0.56207300
Se    9.27196000   17.76549000   17.53843000      0.476858    0.50722900    0.48948600
Se   12.32805000    3.36928000    6.59759000     -0.969580   -0.27744900    0.12573300
Se   17.64179000    3.22894000   15.76720000     -0.543496   -0.37121900    0.00576400
Se   16.08323000    8.57507000    6.15867000      0.425526    0.03841800   -1.14583500
Se   16.40616000    9.30228000   12.00714000     -0.265941   -0.49071000    0.73092100
Se   16.51683000   11.58419000    5.72884000     -0.175900   -0.25178100   -0.17271400
Se   15.46696000   16.89943000   15.12809000     -0.827994   -0.62099200    0.28319100
Se   16.97591000    2.96441000    3.83475000     -0.032474    0.04639500   -0.06934000
Se   18.36658000    3.34852000   12.11096000     -0.016022    0.56407500    0.52350500
Se    1.82853000    2.42093000    6.35945000      0.374860    0.67659700    0.48102000
Se    0.80244000    4.63415000   15.01608000      0.282378   -0.68407200   -0.48465400
Se   18.98585000   12.71964000    7.95896000      0.167034    0.17373700    0.52413800
Se   20.85223000   12.06811000   13.97840000      0.285093   -0.26913400    0.45266300
Se   21.61898000   13.64375000    7.33023000     -0.468500    0.47362200   -0.31066200
Se   20.29295000   18.27871000   12.80994000     -0.456926    0.58355400   -0.50478800
Se   19.96741000   18.92484000    9.29563000      0.373465    0.17927400   -0.38535600
Se   20.67903000   20.61060000   15.75319000      1.207714    1.00007700    0.26445900
Se    3.18764000    1.27116000    4.18276000     -0.152233   -0.38957900   -0.01384500
Se    6.69646000    2.87409000   15.83370000     -0.000933    0.29388300    0.14189200
Se    1.50713000    6.25067000    0.24435000      0.207025    0.74072000    0.26429700
Se    5.24806000    8.94123000   12.82737000      0.697325   -0.36516500   -0.35955600
Se    2.41520000   12.62094000    2.06446000     -0.797122    0.72749200    0.81600800
Se    4.91545000   15.08137000   14.99163000     -0.175527   -0.64664900   -0.49455300
Se    4.16517000   18.34553000    2.50185000     -0.332830   -0.47238200    0.15428000
Se    4.69302000   18.41580000   12.50875000     -0.238593    0.12216900   -0.70312700
Se   10.65463000    1.07007000    2.30489000     -0.749003   -1.30631900   -0.73660900
Se   10.45264000    0.20440000   16.37705000     -0.002390    0.47854000    0.39342600
Se    9.68498000    7.57493000    2.76380000      0.622204   -0.72379300   -1.12656000
Se    7.88727000    9.02346000   15.89918000     -0.436029   -0.63680600   -0.67631200
Se   10.67494000   11.72579000    2.87195000     -0.325643   -0.57707100    0.98078100
Se   10.28964000   11.25684000   11.67177000     -0.370195   -0.29399700    0.38663300
Se   10.22043000   19.12374000    2.09923000      0.118769    0.43987900    0.12547100
Se   14.80377000   18.73590000   13.32783000      0.375425   -0.35140700   -0.11771500
Se   14.98873000    3.25868000    5.48337000      0.846656    0.21495100    0.49707500
Se   13.67913000    1.55328000   15.07570000      0.784073   -0.07848800    0.13838000
Se   15.30930000    6.10667000    3.15930000     -1.449329    0.51452800   -0.76131600
Se   12.63963000    7.55927000   11.35891000      0.473854    0.05703500    1.29236100
Se   16.09205000   10.72480000    2.72916000     -0.045635    0.02488200    0.24042200
Se   17.28701000   14.24716000   16.33901000     -0.633061    0.24077900    0.37358000
Se   15.15601000   15.56922000    4.38361000     -0.480725    0.31706300    0.10961800
Se   14.52158000   22.39977000   12.69222000     -0.160413   -0.30255900    0.23855100
Se    2.09878000   21.42103000    5.78116000     -0.573477   -0.61572300    0.51791700
Se   19.45685000    0.87973000   13.09332000     -0.476040   -0.46100600   -1.08853900
Se   22.45524000    7.23887000    3.89410000     -0.101517    0.32630200   -0.64374400
Se   19.69964000    8.65049000   13.77834000      0.325364    0.35096700    0.18633100
Se    1.26326000   13.89958000    5.83372000      0.493695    0.73827700   -0.10352000
Se   22.48118000   15.37106000   15.25518000      0.400618   -0.39464300   -0.33022800
Se   21.56179000   16.87992000    5.35726000      0.007733    0.43249500   -0.16378600
Se   21.31517000   20.96647000   10.85738000      0.031582   -0.65068700    0.11645300
Se    2.38148000    4.88196000    3.46219000     -0.108658    0.12122600   -0.11901800
Se    2.80873000    5.35549000   11.59611000      0.656938    0.03059400    0.92231400
Se   21.52743000   10.59733000    3.99517000      0.639962   -0.34990400   -0.86490500
Se    1.20464000   10.72221000   11.89707000      1.752860   -0.30702800   -0.64901500
Se   22.33714000   15.87124000   18.57417000      1.803184    0.68513700    0.74111200
Se    3.85699000   15.20960000   12.58987000     -0.540323   -0.13611600    0.43719700
Se    1.80903000    0.43338000    2.26225000      0.481225    0.35986600    0.38896800
Se    5.01967000   20.48512000   14.59462000     -0.227212   -0.83631700    0.07556900
Se    9.96014000    4.91658000    4.92856000     -1.681784    1.51850700   -0.18099900
Se    8.62353000    2.14634000   13.95564000      0.063825    0.54074200    0.37694800
Se    7.02403000    6.73187000    5.09941000      0.111749    1.14693200    0.28024200
Se    7.95373000   12.50273000   14.41388000      0.371368    0.39153000    0.93067500
Se    5.73249000   14.98553000    1.57968000      0.013491   -0.16867300    0.59526800
Se   11.06654000   15.71598000   11.11375000     -0.150097   -0.89515400    0.63635000
Se    7.66626000   19.95762000    5.88301000     -0.109568    0.92674300    1.69040500
Se    7.83113000   20.47114000   15.16496000      0.267448   -0.47190200   -0.28484700
Se   14.59799000    1.98450000    2.78970000      0.280777    0.03410000   -0.80728700
Se   10.87951000    4.64348000   11.97488000     -0.257536   -0.43838000    0.08714500
Se   13.66272000    8.68368000    3.35715000      0.458121   -1.20195300   -0.93669300
Se   10.68715000   10.37404000   13.90399000      0.044047   -0.08019700   -0.60191500
Se    9.32356000   14.19564000    4.96039000      1.120027    0.34619500   -0.06782200
Se   15.01421000   15.51239000   10.75766000     -0.046512   -0.68789500    0.16534700
Se   14.76372000   19.88266000    1.84723000     -0.618986    0.24357800    0.52366500
Se   13.31804000   20.58366000   13.81249000      0.113622    0.18937300    0.05331800
Se   17.77646000    5.81358000    1.19810000      0.161769    0.23294300   -0.11012400
Se   14.35205000    4.82256000   13.40524000      1.223804    0.13281500   -0.03002700
Se   18.57949000    8.20174000    3.58936000     -0.659004   -0.03122300   -0.31054800
Se   21.29004000   13.27760000   12.03172000     -0.173339    0.83586200   -0.80731500
Se   21.00804000   14.21107000    3.16224000      0.630997    0.92503700    0.88860400
Se   16.89093000   16.78086000   12.02319000      0.376490   -0.18543000    0.47576300
Se   16.99830000   20.80704000    5.37223000     -0.259989    0.25067200   -0.86010000
Se   16.44028000    1.18536000   10.04576000      0.186623    0.00961600   -0.69820700
