384
22.54784000 22.54784000 18.93360000
Ge    5.05727000    3.98735000   10.65995000     -0.177626    0.16316900   -0.34681500
Ge    4.50712000    6.47873000    1.63716000     -0.387642    1.22753100    0.49380000
Ge    4.19851000   11.22838000    7.68566000     -0.515756    0.37522000   -0.00598100
Ge    6.85050000   10.30041000   17.87962000     -0.120563    0.03750000    0.09061700
Ge    5.03818000   14.76269000    9.22543000     -1.145188   -1.05724600   -0.86540500
Ge    8.00164000   17.34480000    1.23074000      0.820551   -0.10126700   -0.41493400
Ge    8.08640000   19.37786000    8.95245000     -0.003192    0.18754000   -0.05427000
Ge    4.98999000    0.28550000   18.39177000      0.837676   -0.11973200    0.05825600
Ge    8.14736000    5.64619000    9.53851000     -0.461369    0.12961000   -0.59622700
Ge   11.53021000    5.48410000   18.10282000      0.397320   -0.30461700   -1.29657100
Ge   11.70397000    7.42300000    9.15926000      0.173738    0.26337500   -1.34747700
Ge   10.48576000   12.26134000    0.20760000     -1.167930    0.06257000    0.14102800
Ge   10.03340000   16.63258000    8.81851000     -0.239559   -0.42155900   -0.83198900
Ge   12.17295000   15.52817000    1.12808000     -0.089520    0.51606800   -1.09236600
Ge    9.90730000   22.50054000   10.40320000     -0.645833    0.13799600    0.37452300
Ge   15.40921000   21.73128000    0.27988000      0.696529   -1.01688100   -0.21557700
Ge   18.16436000    5.57350000   10.01188000     -0.822424   -0.14310400    1.15573800
Ge   18.32104000    6.79980000   17.79336000      0.272350    1.20513800    0.05869100
Ge   18.63909000   14.98767000   10.53321000      0.271840   -0.06564000    0.32438100
Ge   18.03744000   11.63523000   18.10921000      0.366125   -0.23933800   -0.63243600
Ge   13.77349000   16.84838000    8.75087000      0.258089   -1.32655500    0.45432100
Ge   16.85070000   14.70394000    0.02075000     -0.212879   -0.28156400   -0.33839400
Ge   16.19314000    3.79836000    9.09939000     -0.163088   -0.42038800   -0.09769000
Ge   18.99907000    4.00723000   18.51714000      0.093787   -0.37880900    0.98811100
Ge    1.01578000    5.00615000   10.05898000     -1.501446   -0.40313100   -0.45504000
Ge   21.76632000    4.77560000    3.20731000     -0.088714   -0.00073300   -0.71979300
Ge    0.37212000   10.66055000    9.24146000     -0.264024   -1.50846900   -0.02168200
Ge   21.46580000    8.93952000   18.86218000     -0.331777    0.67436600   -1.31585900
Ge   20.99059000   15.35403000    9.17525000      0.298008    0.20837300   -0.14944900
Ge    4.24758000   15.06317000   17.88183000     -0.613332    1.26681100   -0.31591600
Ge   18.81745000   22.39896000   10.46805000      0.200224    0.28334600   -0.58556100
Ge   21.05801000   20.82946000    1.64678000     -0.766394   -0.72006100   -0.47131100
Ge    2.40007000    6.43502000    8.11049000      0.182042    0.56147000   -0.49177800
Ge    1.85434000    7.46489000   17.00179000      0.283606   -0.62435200   -0.70955000
Ge   20.25529000    8.68376000    5.38003000      0.734125    0.56113600   -0.84640000
Ge    3.75043000   12.83002000   15.58278000     -0.802637    0.23711200   -1.46562400
Ge    5.24266000   19.11615000    4.79975000     -0.547217   -0.72813300   -0.54752300
Ge    0.25072000   18.46606000   17.85194000      0.235928   -0.47279800    0.93637300
Ge    4.25356000   19.50492000   10.04286000     -0.080213    0.45876400    0.88084100
Ge    1.91167000    2.07308000   17.43942000      1.440726   -1.02924500    0.07322000
Ge    9.60814000    3.36310000    6.84462000      0.289747   -0.85112000    0.76189600
Ge    6.89798000    6.68483000   16.03577000      0.903409   -0.07442400    0.56723900
Ge    7.88542000   11.00764000    3.84970000      0.204308    0.85054900    0.56804500
Ge   10.05702000    7.94872000   16.87998000      0.328659   -0.22051700   -0.21542600
Ge    6.33461000   17.45240000    8.34882000      1.415278   -0.72170600    0.29855100
Ge   10.15044000   15.44446000   16.10611000     -0.984269    0.68688000   -0.36542200
Ge   10.68901000   21.54195000    6.50996000     -0.498653   -0.23602400    0.19220400
Ge   10.21888000   21.23803000   14.28749000     -0.799918    0.30018400    0.61221200
Ge   12.22440000    7.17930000    4.99091000      0.618614   -0.46358500    0.22452800
Ge   15.54071000    4.84671000   15.82630000     -0.798191    0.55769200   -0.37137400
Ge   13.58324000   10.69942000    7.00633000      1.458597    0.01044000   -1.43113100
Ge   15.16690000   12.04179000   16.01149000      0.808998   -0.23748900   -0.46328600
Ge   12.72093000   15.23608000    5.57676000      0.698849   -0.67379400    0.17497500
Ge   14.82621000   17.94961000   18.81526000     -1.211612    0.24509700   -0.05048500
Ge   13.54772000    0.36590000    9.65921000      1.499795    0.43547000    1.54940400
Ge   17.07418000   22.32862000   14.16396000      0.084219    0.10556400    0.51307400
Ge   20.18233000    4.57454000    8.81795000      0.473898    0.05825200    0.05309200
Ge   21.08731000    6.69743000   13.48796000     -0.023083   -1.40127400    0.17541800
Ge   18.05868000   10.11999000    7.79031000     -0.092532    0.09372800   -0.04556200
Ge   20.63207000   15.29886000   17.02991000     -0.668016    0.59089600   -0.68430300
Ge   19.66908000   15.43287000    5.50287000      0.442221   -0.24583800   -0.31433200
Ge   17.00876000   18.08193000   16.34389000      1.733190    1.03541400    0.91242200
Ge    0.72107000    0.43079000    7.45483000      0.046073    0.17299000    0.41517800
Ge   18.48739000   20.63741000   17.03955000      0.062379    0.65199600    0.02887200
Ge    6.48383000    2.68992000    6.77592000      0.895889    1.01362100   -0.07021800
Ge    3.47443000    3.56832000   13.81066000     -0.194701    0.04227200    0.02766200
Ge    0.87751000    9.07561000    6.13093000      0.395635   -0.96380500   -0.39570200
Ge    3.22236000    8.26357000   11.17155000      0.265010   -0.30366200   -0.03684900
Ge    0.72827000   16.00895000    3.96702000      0.953890   -1.70998200    0.01294400
Ge    2.63760000   17.60428000   15.10614000      0.606570   -0.55385600    0.73516900
Ge    2.55123000    0.66788000    9.36506000      0.537071   -0.28272400   -0.23691900
Ge    6.91139000   18.28723000   16.42094000      0.700450    0.11463500    0.39311500
Ge    7.74123000    4.06876000    3.39747000      0.860776   -0.50843500   -0.81272200
Ge   10.20733000    2.77342000   16.32399000     -0.687192   -0.08217900   -0.12059400
Ge    8.46378000    8.63425000    4.39983000     -0.227945   -0.37599600    1.77444200
Ge    7.92070000    9.60244000   13.42469000     -0.130399    1.98793000   -0.21382800
Ge    7.01604000   14.48631000    4.37618000     -0.010802    0.41330200   -0.33108100
Ge   12.21727000   12.64679000   15.69172000     -0.517631   -0.53597100   -0.94348700
Ge    8.13409000   20.10415000    3.55193000     -0.209640   -0.02133700   -1.49663600
Ge    9.37952000   16.35773000   13.01328000     -0.582119   -0.07243500    0.08924700
Ge   11.60863000    1.63824000    4.88458000      0.383159    0.18526100    0.31582800
Ge   12.26752000    4.16386000   13.97996000     -1.583153    0.01047900    0.86300500
Ge   17.11634000    5.92420000    4.51357000      0.397832   -0.31609800    0.65096800
Ge   13.27421000    8.57718000   13.97338000      0.111948    0.07077300    0.96825400
Ge   15.10194000   13.09601000    4.03274000     -0.705106   -0.29784900   -0.24736100
Ge   13.23486000   16.31827000   12.55694000     -0.338389    0.19935600    0.05465000
Ge   11.95056000   17.30496000    4.28712000     -0.323330    0.94558300   -0.07042700
Ge   11.15111000   19.73004000   17.06854000     -0.257561   -0.83915000    0.28112500
Ge   22.44993000    3.86355000    5.77827000     -0.821968   -0.31120000   -0.09712700
Ge   22.24334000    2.45583000   13.70995000     -0.872446    0.98172000    0.16223600
Ge   18.95837000    7.44786000    7.29661000     -0.672489   -0.29905800    0.13657900
Ge   18.31152000   10.62740000   12.97797000     -0.251884    0.94099900    0.16935000
Ge   21.35284000   16.78905000    1.85378000     -0.416205   -0.18439800   -0.34362300
Ge   18.30847000   15.77890000   14.19587000      0.189063   -0.19725100    0.09400800
Ge   19.36710000   20.04357000    5.51131000     -0.501758   -0.15607000   -0.58112800
Ge   22.12297000   20.57138000   13.19767000      0.558478    0.15076400    0.25244800
Ge    4.31260000    3.21884000    2.80438000     -0.634519   -0.16910000    0.43098400
Ge    6.29303000    1.88110000   13.04142000     -0.755456   -0.29653500   -0.52635200
Ge    4.87248000    8.16353000    4.80755000     -0.159120   -0.71261600   -0.78292700
Ge    6.85637000    5.07577000   14.02506000      0.162987   -0.35032500   -0.22798200
Ge    4.38017000   13.07873000    0.82102000      0.295308   -0.83506200   -0.88593600
Ge    3.93386000   11.49734000   12.47344000      0.247426    0.17809900   -0.51171700
Ge    4.89434000   21.63473000    5.82558000     -0.269502    0.79158600    0.04850300
Ge    7.28569000   19.68884000   12.57544000     -0.705016    0.64871600    0.10599500
Ge   11.32748000    3.87638000    3.32442000      1.169642   -0.69058400   -0.86390800
Ge    8.02725000    3.78224000   11.82958000      0.381276    0.00437500   -0.06358600
Ge   11.86438000    7.55732000    1.69858000      1.536386    0.86794700   -0.17979700
Ge   10.55355000    6.90074000   12.77977000      2.315904   -0.11032400   -0.16955300
Ge    8.16537000   13.44326000    1.49652000      0.174253   -0.37720800   -0.11084600
Ge    8.41512000   14.49899000   11.19054000      1.117936   -1.28696000   -0.96847200
Ge   11.57146000   21.60142000    0.62118000      0.033007   -0.13369400    0.20238500
Ge   11.03887000   19.74670000   12.33913000      0.596140   -0.62368700    0.38856600
Ge   22.04400000    0.14829000   17.06177000     -0.793178    0.72806000   -1.68113600
Ge   12.65668000    2.63852000   10.69083000     -0.238423   -1.61011400    1.08721400
Ge   16.51640000    9.02059000    1.05268000      0.776925   -0.41896500    0.07060300
Ge   14.87856000    8.78296000    9.97737000     -0.308721   -0.04899200    0.15123400
Ge   18.10536000   12.20950000    2.82056000      0.689119   -2.01505500   -0.33238700
Ge   16.82414000   15.68745000    8.73843000      0.484082   -0.11804300   -0.04321800
Ge   16.81524000   20.42053000    2.80038000      0.603175    0.40631900    0.80197000
Ge   14.73625000   19.40540000   10.61812000      0.015874   -0.36590800   -0.25172500
Ge   21.08414000    1.33373000    1.97930000      0.458643    1.34414700   -0.11566200
Ge   21.42543000    0.82215000   10.39019000      0.095481    0.89901200    0.59487300
Ge    0.96565000    8.30517000    1.47848000     -0.009938    0.73109800    1.08175000
Ge   21.53523000   10.34573000   12.61496000     -0.339166   -2.88986900   -1.07787600
Ge   20.44118000   12.72898000    1.34400000     -0.353617   -0.18940400   -0.09936000
Ge    0.79852000   14.65073000   10.94412000     -0.445876   -1.62693400   -0.67052000
Ge    0.25978000   19.22011000    4.58368000      0.032484    0.20381000    0.08908800
Ge   18.12097000   18.81200000   11.26672000      0.900932   -0.16252800   -0.21734900
Se   20.30723000    0.33162000   18.72512000     -0.258051    0.10469700    0.58097900
Se    1.33255000    2.34630000   10.88231000     -0.424482   -0.29079900   -0.13422400
Se    2.61859000    9.96787000    3.08012000     -0.089526   -0.28917500   -0.10230400
Se   22.25577000    7.40359000   11.45476000      0.770946    0.37693600   -0.30463200
Se    0.13913000   11.99833000    0.59701000     -0.179095    0.17575900   -0.89204100
Se    1.58460000   12.58164000    8.99621000      0.779849    1.35891200    0.23467700
Se    2.11735000   17.50530000    5.21852000      0.626882    1.00281400   -0.42190100
Se    1.91391000   16.67178000   11.37229000      0.488215    0.83152900    0.27770900
Se    6.08244000    2.07770000    1.60716000      0.169936    1.14169200   -0.92100800
Se    6.91412000    1.96205000   10.38932000      0.204767    0.23891400    0.83447000
Se    7.19137000    6.11073000    2.03306000     -0.878427   -0.17008500   -0.60605000
Se    8.44945000    7.56328000   12.35685000     -1.474296   -1.52835200   -0.90401300
Se    7.61699000   10.57422000    1.34067000     -0.176815    0.39207000   -0.13535900
Se    6.40078000   13.34360000   12.98892000      0.091560   -0.58354800    0.37197900
Se    4.85604000   20.68108000    2.50131000      0.459034   -0.68016700    0.02750200
Se    9.04519000   18.61686000   11.27509000     -0.208027   -0.67102700   -0.74762600
Se   13.88459000    1.00942000    0.19198000     -0.404748    0.11801000   -0.16138100
Se   11.76456000    1.69105000   13.72024000     -0.400548   -0.12485000   -0.00535200
Se   12.42570000    7.85407000   18.15903000     -0.106073   -0.00740100    0.23189100
Se    9.80869000    8.77555000    9.82915000     -1.072899    0.34465600   -0.68817500
Se   12.86700000   13.54201000    2.26244000      0.833644   -0.44829900    0.27772000
Se   11.84819000   10.82697000    8.51944000     -1.339826   -0.33561400    1.06926600
Se   14.01018000   16.83278000    2.12476000      0.349079   -0.19939700    0.58292000
Se   12.29278000   18.04679000   10.49579000      0.760700    0.35709500    0.74026700
Se   19.43533000    3.31420000    2.28067000      0.129512   -0.56059000    0.12872400
Se   16.02133000    2.19979000   11.98991000      0.077856    0.46307200    1.36100800
Se   15.80661000    7.99375000   17.71105000     -0.150782   -0.56712200   -1.32412200
Se   17.87531000    6.19523000   12.39149000      0.334075   -1.30578300   -0.71716900
Se   18.86423000    9.56479000    0.21373000     -0.769900   -0.37021300    0.50581200
Se   17.58825000   13.65888000    6.32695000     -0.350201    1.09725300   -0.14797300
Se   20.43216000   19.15707000   18.67694000     -0.137419   -0.24708900    0.80205800
Se   16.43381000   18.16229000    8.93917000     -0.456711    0.85514900    0.70676300
Se    2.22164000    3.13560000    1.53936000     -0.546024   -0.10109600   -0.51970800
Se    5.66476000    6.66020000   10.85101000      0.174913    0.12724900   -0.07660000
Se    4.86630000   10.81905000    1.77444000      0.940140   -0.80706500    0.48766800
Se    5.11996000   12.19466000   10.01005000      0.019650    0.10056400    0.26723700
Se    2.56190000   15.35728000    2.35383000     -0.409972   -0.23323100   -0.06406000
Se    2.08161000   13.29065000   12.69600000      0.827519    0.82092000    0.68460700
Se    2.90379000   21.73733000    0.13209000     -0.670008   -0.28559700    0.44619500
Se    6.28490000   20.88139000    9.89655000     -0.465104   -0.21918800    0.05121600
Se   12.53910000    5.18698000    1.28436000      0.120644   -0.35346600    1.68263300
Se    5.56086000    4.72359000    8.03103000      0.858133   -0.04667800    0.41972800
Se   11.90054000   10.65541000    1.21720000      1.417116   -1.82997700   -1.18015200
Se    7.49890000   11.72020000   11.16574000      0.052664    0.42444100   -0.49846600
Se    9.79091000   15.41265000    1.67983000     -0.593864    1.11409300    0.72177300
Se   12.94501000   12.77527000   12.00841000      0.144137    0.81431400    0.78108500
Se    9.17654000   21.11615000   18.08411000      0.282848    0.81491800    0.01010800
Se    8.40817000   22.11108000   12.60628000      0.544910   -0.37942200   -0.93303600
Se   15.35557000    4.60527000    0.85043000      0.187389    0.75104400   -0.15632900
Se   16.60277000    7.16501000    8.86488000      0.677495   -0.73165900   -0.27777100
Se   15.40986000   10.50076000   18.11807000      0.131222    0.18743200    0.44844800
Se   14.20481000   10.40976000   12.58559000      1.090182    0.27170000   -0.47216300
Se   17.66202000   14.41951000    2.84867000     -0.642368    1.01376500    0.18530300
Se   14.89083000   12.66355000   10.40106000      0.358657    0.41642400    0.51387700
Se   17.82614000   21.90874000    0.87605000     -1.227129   -0.24326700    0.82442700
Se   14.82354000   20.87301000    8.64422000     -0.094938    0.38335700    0.04759300
Se   21.18136000    5.20095000    0.20186000      0.422649    0.20009100    0.69326200
Se   21.16702000    3.89225000   11.61013000     -0.309587   -0.74230700    0.86016400
Se   20.20687000    6.99217000    2.18680000     -0.065040   -0.74649700   -0.12212000
Se   20.45297000   10.94542000   10.24200000      0.190120    0.77875800    0.27108300
Se   19.43261000   14.93043000    0.22138000     -0.013771   -0.12116100    0.30068200
Se   20.36220000   16.06673000   12.44376000      0.472282   -1.78318500   -0.05618100
Se   20.93812000   22.30057000    3.82501000     -0.553181   -0.17245200    0.46087100
Se   17.17272000   21.03348000   11.62967000     -0.250591   -0.47930100   -0.23123700
Se    2.84051000    3.81288000    8.61118000      0.183185   -0.22094900   -0.63493400
Se    0.27772000    3.72955000   17.18952000     -0.960829    0.47150200    0.11418300
Se    3.58326000    9.08634000    8.74820000     -0.486300   -0.62202000    0.14506900
Se    0.95443000    9.63979000   17.00664000     -0.024529    0.19980700    0.51203500
Se    4.08198000   17.93894000    8.24896000     -1.160082    0.02262700   -0.14018900
Se    0.05191000   17.68098000   15.42719000      0.159326    1.98382200   -0.63024400
Se    2.42226000   20.29675000   12.67717000     -0.992253   -0.02226500   -0.38485700
Se    1.00529000   21.05054000   17.69998000      0.898858   -1.19313700    0.10377400
Se    5.72205000    4.10580000    4.72105000     -0.975117   -0.26479800    0.94156600
Se    5.51815000    4.83308000    0.28782000      0.673075   -0.58553400   -0.47125900
Se    5.73497000    9.85907000    6.21116000      1.042506   -0.09423200    0.46425000
Se    4.76054000    7.70188000   16.37764000     -1.119489    0.64400400    1.15659400
Se    6.41153000   15.66829000   10.91691000     -0.157939    1.96116400   -0.03961100
Se    6.88688000   16.05294000   17.99589000     -0.309845   -0.41839400    0.06890800
Se   10.47846000   17.98538000    6.48364000      0.225021   -0.16064200    0.34376900
Se    6.45178000   20.50743000    0.18848000      0.065897    0.62006100    0.38210700
Se   10.33023000    2.26744000    9.92211000     -0.268217    0.10352000   -0.47849400
Se   13.05186000    3.70532000   16.79060000     -0.794460    0.14495400   -0.04103800
Se   13.91911000    8.06938000    7.02473000     -0.060372   -0.22125000    0.44153300
Se   13.16525000   10.15227000   16.18213000     -0.243864    0.36558700   -0.70759500
Se   12.03883000   14.97244000    7.97897000     -0.344862    0.81625700    0.05683900
Se   14.55527000   15.06197000   17.40727000     -0.029927   -0.20692500    0.07282100
Se   12.67430000    0.09451000    7.56118000     -0.998681    0.10996100   -2.81454800
Se   15.32834000   20.02310000   17.26615000      0.166641    0.22314200    0.11158500
Se   13.85324000    4.34233000    9.86216000      0.830624    1.44501700   -1.03363000
Se   20.23377000    1.49946000   15.15903000      0.780410    0.95578600    0.34590200
Se   18.90497000    9.23719000   10.45658000     -0.492445   -0.63058200   -0.83157800
Se   17.49651000   10.69583000   15.44672000     -0.656663    0.13953500    0.37702700
Se   15.34132000   16.34132000    6.83618000      0.066351   -0.14485900   -0.55120100
Se   19.54671000   13.49779000   15.59975000     -1.071504    0.94397300    0.84120100
Se   18.55081000   20.25693000    7.85830000     -0.240204    0.81476100    0.53946600
Se   18.51415000   18.66900000    2.71195000      0.369462   -0.65758400    0.35773700
Se    4.98050000    1.03923000    7.49073000     -0.635254   -1.12400100    0.11076600
Se    4.35536000    3.25280000   17.11815000     -0.437033   -0.47272600   -0.04264200
Se    7.87647000    7.96236000    8.49275000      0.562097   -0.19213100    0.35401000
Se    4.74498000    8.83066000   18.72302000      0.104505   -0.20109000   -0.42974300
Se    6.38887000   16.55953000    5.89534000     -0.440803    0.07691100   -0.05870900
Se    5.16429000   12.27244000   17.31873000      0.990082   -0.51102500    1.26470100
Se    1.94667000   20.67159000    9.71565000      0.638609   -0.19755700    0.23056900
Se    0.53831000   19.65425000    2.00969000      0.877288   -0.70772000    0.00997100
Se    8.82260000   21.78459000    8.36168000      0.101810    0.18360700   -0.18137000
Se    9.90644000    3.02710000    1.33715000     -0.156973    0.65500300   -0.04906300
Se   10.77603000    5.30191000    8.72977000     -1.027054   -0.60936300   -0.08389500
Se    9.13538000    5.61109000   17.72068000     -0.154430    0.68882400    0.15746600
Se    9.35393000   12.00524000    5.84776000     -0.252449    0.22173000   -0.44246000
Se    8.10406000   13.85743000   17.91857000     -0.342730    0.49201400   -0.88432500
Se   11.95577000   21.26134000   10.45639000     -0.713084   -0.54416300    0.28397800
Se   11.47881000   13.95174000   17.78904000      1.360365    0.94826800    0.06393200
Se   15.24308000    1.59489000    7.12241000      0.739060    0.20237900    0.52629100
Se   16.46585000    2.97272000   18.71498000      0.381271   -1.11714400   -0.56245900
Se   15.66686000    5.24106000    7.02048000     -0.295787    0.10114600   -0.34299100
Se   15.68380000    7.70986000   15.13933000     -0.287760   -0.20377200    0.43606100
Se   15.76185000   10.78245000    8.72590000     -0.502993    0.40698000    0.06742700
Se   14.39374000   13.07868000    0.32245000      0.149023    0.39881400   -0.48458300
Se   14.00257000   18.92450000    5.77753000     -0.331260    0.01947300   -1.20729600
Se   17.10679000   17.20593000   18.75271000      1.125359    0.40291000    0.23229700
Se   20.76447000    0.77022000    7.99523000     -0.040603    0.23445600   -0.34006300
Se    1.10909000    0.49110000   13.09224000     -0.299160   -0.80791400    0.63722900
Se   20.51340000    7.24898000    9.32550000      0.545019   -0.19027400   -0.36839700
Se   20.75024000    7.50384000   16.91028000     -0.303952   -0.19683500    0.48952900
Se   21.84838000   10.63812000    6.99150000     -0.560827    0.40808800    0.45531400
Se   20.99618000   11.32716000   17.50692000      0.043709   -0.00435000    0.87194800
Se   19.37788000   16.91856000    7.78274000      0.020069   -0.53357500   -0.05097900
Se   19.66347000   17.45142000   15.92516000     -0.858578   -0.89394700    0.29395200
Se    3.87984000    1.38934000   11.51347000      0.285830    0.40272900    0.01521500
Se    2.80507000    1.19476000   14.97962000     -0.482156   -0.04558900    0.03375100
Se   22.49184000    6.81530000    7.40024000      0.314604   -0.00471600   -0.08224200
Se    0.96760000    9.72278000   14.18543000      0.391304   -0.20328400    0.58381900
Se    3.33326000   14.82321000    6.62899000     -0.760451   -0.46608000   -0.35790300
Se    1.90420000   13.61712000   16.77421000     -0.229650    0.26965600    0.44346200
Se    0.56902000   16.96303000    9.34158000     -0.502138    0.32464800   -0.60047800
Se    2.43037000   20.06221000   15.05569000      0.626317    0.75682000    0.10913800
Se    6.32273000    0.49561000    3.24052000      0.737976   -0.98995200    0.80902300
Se    8.29090000   22.54021000    1.43138000     -0.119064   -1.07201700    0.44431600
Se    9.87249000    8.89948000    6.47531000     -0.547775    0.15400700   -0.58029500
Se    4.60354000    5.85010000   14.47794000     -0.494627   -0.54219200   -0.48709000
Se    5.75348000   12.39653000    4.56862000      0.240470   -0.47678300   -0.39528400
Se   10.25124000   13.92905000   13.70077000     -0.490295   -0.18305000    0.44928200
Se    7.77034000   17.53919000    4.10399000      0.359758   -0.20956000   -1.10188800
Se    7.58140000   16.46882000   14.82557000     -0.239323   -0.22243600   -0.00381400
Se   13.53678000    0.26184000    3.66869000     -0.641900   -1.11972000    1.28488300
Se   13.91833000   22.14437000   16.55287000     -0.433037    0.34926600   -0.32405900
Se   11.86782000    9.51835000    4.89985000     -0.989184    1.41502600    0.23705200
Se   11.35989000    6.39370000   14.97957000     -0.220875    0.52863600    0.67520400
Se   12.71231000   12.83275000    5.31079000      0.603230    0.03545200    0.01182100
Se   13.96556000   13.99552000   14.15382000     -0.249304   -0.20052900   -0.20430600
Se   12.70033000   18.78970000    7.69219000     -1.247250    1.35121100   -0.85146800
Se   12.31124000   18.65658000    0.27616000     -0.702125    0.31448800   -0.56437200
Se   20.71885000    1.93074000    5.48627000      0.330872    0.43224800   -0.39698600
Se   17.49098000    0.54986000   16.65806000      0.037713   -0.67480100   -0.28508500
Se   19.20257000    5.06943000    6.58598000      0.304396    0.09947300   -0.26422900
Se   18.46158000    5.42087000   15.74189000      0.553363    0.58111400   -0.45049800
Se   19.49058000   11.30091000    4.87952000     -0.554545    0.65919500    0.00250000
Se   17.62528000   13.25412000   11.80428000     -0.282524   -0.38410900    0.32703400
Se   17.99476000   17.06928000    4.65141000     -0.096351    1.16624300   -0.51365500
Se   17.82832000   19.88806000   14.66113000     -0.361637   -0.05703300   -0.30291800
Se    2.71063000    6.89722000    5.48285000      0.445610   -0.19726400    0.36283800
Se    1.32505000    7.25534000   13.43942000     -0.351828    0.41911700   -0.27616500
Se    2.60098000   10.74658000    5.42287000     -0.233398    0.47650900   -0.13129200
Se    4.60524000   10.35331000   14.73615000     -0.413664    0.35723300    0.14522100
Se    6.38329000   13.80992000    7.17937000      0.497981    0.37727800    0.79644900
Se    3.42035000   17.73725000   17.62241000     -0.283530   -0.68272200   -0.54917900
Se    1.13317000   19.53448000    7.16181000      0.185396    0.38881800    0.29495400
Se    5.24095000   22.33681000   16.00256000      0.073328    0.89953900    0.10075300
Se    9.19002000    1.01262000    5.57364000      0.599712    0.34310200   -0.00246700
Se    7.87984000    2.67693000   17.85675000      0.475981   -0.13301900   -0.60553500
Se   11.92053000   12.92382000    9.58900000     -0.427462   -0.05167500    0.04408500
Se    9.54950000   11.26498000   17.19164000     -0.361183   -0.24327500   -0.05345900
Se    8.63517000   14.34442000    8.30971000     -0.052496    0.00734300    0.46957300
Se   10.76714000   17.66168000   14.42304000      1.335041    0.32081900    0.07288100
Se   11.84423000   19.74663000    3.99840000      0.125352    0.23950300   -0.14751600
Se    9.45563000   17.75574000   17.59218000     -0.240857    0.34990300    0.17626300
Se   12.33049000    3.36805000    6.61475000     -1.330734   -0.25646700   -0.02402000
Se   17.61196000    3.24242000   15.78423000     -0.393464   -0.85176300   -0.08412100
Se   16.16100000    8.63670000    6.12769000      0.234827   -0.05232300   -0.83803000
Se   16.34618000    9.23492000   11.93715000     -0.341518   -0.49640700    0.86349200
Se   16.55094000   11.58655000    5.74376000     -0.342322   -0.51573400   -0.14532000
Se   15.51413000   16.86399000   15.21238000     -1.682205   -1.33693300   -0.52009700
Se   16.84579000    2.96200000    4.02614000      0.343572    0.31402400   -0.23296700
Se   18.46919000    3.39406000   12.16875000      0.167877    0.67358300    0.17018900
Se    1.90186000    2.41517000    6.37738000      0.097269    0.46943500    0.10405400
Se    0.72126000    4.61211000   15.11266000      0.370658   -0.28656100   -1.18407500
Se   18.93761000   12.78219000    7.94992000      0.908346   -0.19792600    1.40302100
Se   20.86514000   12.00318000   13.95277000     -0.142218    1.59513700    0.61925400
Se   21.62757000   13.73689000    7.32896000     -0.242189    0.33768200   -0.47181900
Se   20.31499000   18.27125000   12.77971000     -0.488977    2.24934000   -0.19489600
Se   19.89060000   18.94482000    9.31494000      0.625470   -0.06741400    0.01750300
Se   20.69272000   20.62153000   15.69975000      1.050438    0.86208600    0.46853300
Se    3.17158000    1.24803000    4.23048000     -0.180931   -0.52985800   -0.44266300
Se    6.69472000    2.83347000   15.76511000     -0.165085    0.44173800    0.21706700
Se    1.51035000    6.36890000    0.24754000      0.448244   -0.63491800    0.04518400
Se    5.19558000    8.92326000   12.82554000      0.274628   -0.45081700   -0.42315800
Se    2.43889000   12.65319000    2.05136000     -1.582447    0.97947400    1.14948200
Se    4.92667000   14.99261000   14.93365000      0.115621   -0.23158000   -0.55718100
Se    4.18663000   18.36263000    2.54268000      0.038442   -0.11291600    0.14456700
Se    4.74149000   18.49311000   12.50033000     -0.340708    0.03086800   -0.73694800
Se   10.64419000    1.07257000    2.37650000     -0.844434   -1.05694500   -0.96025600
Se   10.57237000    0.25525000   16.45816000     -0.200404   -0.10796900    0.37000300
Se    9.75346000    7.57155000    2.69495000     -0.429821   -0.58139800   -0.47727800
Se    7.92210000    9.07224000   15.82290000     -0.561276   -1.14323500    0.43533900
Se   10.67508000   11.62631000    2.83368000     -1.595289    0.36627400    2.21951900
Se   10.23836000   11.19554000   11.70462000     -0.114594   -0.07184600    0.23197300
Se   10.13276000   19.10657000    2.14336000      0.372540    0.47207100   -0.12558500
Se   14.82259000   18.78544000   13.20501000      0.547734   -0.97010800   -0.12690800
Se   14.90946000    3.25677000    5.57665000      0.652682    0.50397100   -0.06560400
Se   13.67485000    1.53497000   15.08818000      1.219707   -0.30948400    0.56534800
Se   15.25441000    6.11178000    3.04510000     -0.922403    0.55675500   -0.09242700
Se   12.61780000    7.66299000   11.29867000     -0.053660   -0.06091700    1.43510000
Se   16.09630000   10.60166000    2.75629000      0.028582    0.76286700    0.64305000
Se   17.22543000   14.20318000   16.31991000     -0.068670    0.12665100    0.12238000
Se   15.19772000   15.58947000    4.36877000     -0.464550    0.33003900    0.10805000
Se   14.57675000   22.29021000   12.75854000      0.033336    0.44880100    0.16276100
Se    1.89245000   21.45566000    5.85154000      0.230741   -0.57779300    0.08695100
Se   19.42871000    0.70100000   13.10268000     -0.092792   -0.01466500   -0.45824200
Se   22.45244000    7.27144000    3.87033000     -0.028967    0.25853200   -0.56113900
Se   19.64029000    8.62129000   13.71715000      0.236468    0.79379000    0.47092500
Se    1.23631000   13.95917000    5.80861000      0.656578    0.54940300   -0.11087200
Se   22.47346000   15.46733000   15.22955000      0.194141   -2.01703400   -0.44814800
Se   21.56647000   17.01841000    5.27406000     -0.758402    0.45202200    0.34352200
Se   21.35847000   20.96307000   10.82859000     -0.013247   -0.51200900   -0.14838700
Se    2.54969000    4.93970000    3.43410000     -0.171026    0.20450500   -0.11415100
Se    2.75425000    5.40394000   11.54485000      0.825450    0.12756000    1.44262300
Se   21.45090000   10.55062000    3.88464000      0.365270   -0.35058400   -0.60047700
Se    1.26165000   10.62266000   11.85144000      1.392740   -0.11028600   -0.37986600
Se   22.40033000   15.94154000   18.58880000      1.054671    0.23535100    0.47286800
Se    3.94177000   15.18788000   12.60328000     -1.175811   -0.30868800    0.40770800
Se    1.78633000    0.40990000    2.32748000      0.756116    0.40184500    0.33129400
Se    5.13562000   20.44103000   14.64510000     -0.413764   -0.70192000    0.22328300
Se    9.91115000    4.82920000    4.93656000     -1.339422    1.21716600   -0.03129600
Se    8.75038000    2.08289000   13.91004000     -0.000807    0.88264700    0.45674100
Se    7.08764000    6.61437000    5.03641000     -0.019085    1.42764000    0.38695800
Se    7.99206000   12.48510000   14.40187000      0.520703    0.26101300    1.01997700
Se    5.64544000   14.87812000    1.63205000      0.371129    0.54448400    1.00730000
Se   10.97066000   15.70515000   11.14370000      0.693105   -1.01798300   -0.03164100
Se    7.63820000   19.97587000    5.84033000     -0.290257    1.11392700    1.99953200
Se    7.89886000   20.39105000   15.13591000      0.598301   -0.17340600   -0.26191000
Se   14.53115000    2.04653000    2.76343000      0.612421    0.65612300   -1.19727300
Se   10.84242000    4.63729000   11.97679000     -0.232066   -0.17407700    0.11220500
Se   13.65606000    8.71786000    3.26753000      0.418616   -0.99395900   -0.59257700
Se   10.73293000   10.34080000   13.87781000     -0.112304   -0.20632000   -0.35078200
Se    9.43833000   14.25436000    4.93612000     -0.224152   -0.69777100   -0.01826400
Se   15.00976000   15.44460000   10.70896000     -0.466448   -0.81965000    0.19640200
Se   14.59734000   19.84551000    1.79861000      0.441448    0.57224300    0.41067500
Se   13.34689000   20.50564000   13.79687000     -0.344064    0.24138500    0.39958800
Se   17.77888000    5.85124000    1.13888000      0.555972    0.27498400   -0.14139200
Se   14.33494000    4.81950000   13.44680000      2.226353    0.34028200   -0.27173300
Se   18.57524000    8.18622000    3.60187000     -0.435004   -0.26003900    0.01131400
Se   21.27264000   13.30123000   11.89297000     -0.056907    0.43853400    0.16050400
Se   21.01693000   14.25793000    3.13018000      0.658973    0.91828000    0.94025800
Se   16.90185000   16.79053000   11.91612000      0.127770   -0.20353600    0.66641800
Se   16.96609000   20.81884000    5.45980000      0.363608   -0.06944300   -1.03384700
Se   16.48549000    1.23603000    9.99241000      0.401878   -0.22586900   -1.08602300
