384
22.54784000 22.54784000 18.93360000
Ge    4.73440000    4.14209000   10.31285000      0.608782    0.31709700    0.00977400
Ge    4.15421000    6.52544000    1.75408000      0.602216    0.56864700   -0.97370500
Ge    3.99198000   11.14061000    7.40296000      0.152885   -0.00304500    0.14171300
Ge    6.93848000   10.45960000   18.09109000     -0.452497    0.04619100   -0.68128900
Ge    4.83785000   14.46088000    9.32761000      0.105546    0.51176400    0.43908200
Ge    8.11792000   17.40519000    1.19869000     -0.088156    0.94960700   -0.22017200
Ge    7.86457000   19.57902000    8.94480000     -0.640579    0.08832100   -0.27648300
Ge    5.12057000    0.12941000   18.20772000      0.039300   -0.02583800    0.34853500
Ge    8.30409000    5.94082000    9.45927000     -0.708355   -0.31620200    0.26089000
Ge   11.87412000    5.29000000   17.78164000     -1.145960    0.59120100    1.07541300
Ge   11.70117000    7.49082000    8.80918000     -0.233831   -0.00739300    0.78889300
Ge   10.37117000   12.14880000    0.23313000     -0.132428    0.35439700   -0.19174700
Ge    9.58958000   16.55074000    8.59518000      0.510964    1.17941000    0.59053500
Ge   12.10848000   15.59388000    1.05669000      0.024994   -0.50623100   -0.50336300
Ge    9.46213000   22.43855000   10.50984000      1.240829    0.45020000   -0.88416800
Ge   15.28513000   21.69353000    0.22661000     -0.120391   -0.32515200   -0.06595000
Ge   18.22976000    5.50507000   10.15146000      0.466477   -0.86082900   -0.99796000
Ge   18.27155000    7.15957000   17.53996000      0.303097    0.30845200   -0.19521400
Ge   18.60832000   15.09324000   10.66852000      0.191969   -0.75384900    0.00888200
Ge   17.72036000   11.79343000   18.31486000      0.103562   -1.12914500   -0.54965100
Ge   13.78108000   16.38960000    8.84403000     -0.478143    0.16115400   -0.16952700
Ge   16.83698000   14.21802000   18.77544000     -0.412427    1.08487700    0.76703000
Ge   16.22052000    3.87431000    9.17954000     -0.583644    0.35298500    0.35655700
Ge   18.78073000    3.93722000   18.44109000     -0.030682   -0.20482700    0.12390600
Ge    0.92328000    4.69267000    9.71462000     -0.199443   -0.47807400    0.78513400
Ge   21.65822000    4.89127000    3.06384000      0.745921   -1.12599400   -0.10812800
Ge    0.22911000   10.37422000    9.22459000      0.570614    0.41947900   -0.51462500
Ge   21.49257000    9.18627000   18.85828000      0.438290   -0.25660200   -0.56180100
Ge   21.04440000   15.46597000    9.09018000     -0.965042    0.21939100   -0.29489400
Ge    4.10175000   15.35219000   17.78224000     -0.141212   -1.79181600    0.26272300
Ge   18.91328000   22.43833000   10.55267000      0.189528   -0.27370900   -0.07092200
Ge   21.19875000   20.62631000    2.12193000     -0.195519   -0.34129700   -0.81128000
Ge    2.61522000    6.68812000    7.83926000      1.275002    0.33695400    0.43565900
Ge    1.87735000    7.36221000   16.76430000      0.024765   -0.06965100    0.01590000
Ge   20.43592000    8.75155000    5.21119000     -0.301146    0.19049400   -0.42825400
Ge    3.50995000   12.75260000   15.26587000     -0.521796   -0.12476300    0.48621800
Ge    4.92907000   18.68483000    4.93142000     -0.881161    0.89038400    0.77260800
Ge    0.58756000   18.29272000   18.04602000     -0.042500    0.72242200   -0.15428300
Ge    4.24280000   19.53018000   10.05032000      0.569574   -1.67358900   -0.00655200
Ge    1.87295000    1.94993000   17.72404000     -0.050290    0.20446400    0.27922800
Ge    9.48019000    2.89586000    7.11107000     -0.129716    0.64750800    0.09734400
Ge    6.98317000    6.51245000   16.22102000      0.439939    0.16640300    0.23307000
Ge    7.86342000   10.99322000    3.94120000      0.037796   -0.77951400   -0.33027900
Ge   10.18303000    7.83615000   16.86990000      0.058839    0.57061300   -0.74777700
Ge    6.54161000   17.21816000    8.49790000     -0.112782   -0.22972900    0.37324400
Ge   10.15437000   15.52565000   15.82719000     -0.253721    0.57077600    0.18290500
Ge   10.72304000   21.32389000    6.59680000     -0.474398   -0.18901500   -0.42399000
Ge   10.09226000   21.30646000   14.35015000      1.788405    1.08476600   -0.50700900
Ge   12.44170000    7.31664000    4.94706000     -0.007673    0.82242200   -0.06042900
Ge   15.47528000    4.84755000   15.89024000     -0.293235    0.26343500    0.01146500
Ge   13.87301000   10.48321000    6.99514000     -0.750916    0.24857700   -0.19262200
Ge   15.42046000   12.25842000   15.88355000      0.007240   -1.30646700   -0.41222200
Ge   12.88703000   15.33932000    5.57424000      0.085984   -0.39925300   -0.04578300
Ge   14.81438000   17.82780000   18.67048000      0.487366    0.02778200    0.64562700
Ge   14.02535000    0.30733000    9.82615000     -0.015398   -0.41233400   -0.27579900
Ge   17.22515000   22.26224000   13.97283000     -0.937269    0.67653100    0.80720500
Ge   20.42696000    4.42385000    8.78843000     -0.146259    0.37444600    0.06161400
Ge   20.77820000    6.52595000   13.51724000     -0.343482   -0.20480400    0.08062400
Ge   18.15842000   10.34056000    7.47552000      0.159340    0.21743400    0.51550600
Ge   20.59574000   15.22685000   16.94423000      0.427751    0.35285100    0.08871500
Ge   19.81923000   15.73629000    5.51729000     -0.462702   -1.22022000   -0.02410800
Ge   17.24780000   18.12119000   16.48704000     -1.386569    0.28368600    0.36246200
Ge    0.65735000    0.64249000    7.43336000      1.000302    0.00556200    0.79611200
Ge   18.54755000   20.86858000   17.07130000      0.130910    0.02438600   -0.05723200
Ge    6.66450000    3.06726000    6.74143000      0.313650   -0.67319300    0.39526200
Ge    3.66361000    3.48117000   13.69305000     -0.555573   -1.03426600   -1.09777200
Ge    0.51657000    8.92804000    6.13265000      0.465671    1.13997300   -0.61050600
Ge    2.80569000    8.08786000   11.05246000      0.423878    0.22225800    0.21178600
Ge    0.76121000   15.82257000    4.02522000      0.115184    0.66310500   -0.78735000
Ge    2.52240000   17.76046000   14.96306000      0.214165    0.07773600    0.36139600
Ge    2.86804000    0.52926000    9.11777000     -0.241425    0.07218000    0.30887600
Ge    7.24768000   18.44988000   16.45891000      0.492991   -1.47536400    0.91556800
Ge    7.97385000    4.00614000    3.24543000     -1.006936   -0.64497000   -0.24102900
Ge    9.88517000    2.62737000   16.61088000      2.058005    0.22256300   -1.51339800
Ge    8.30301000    8.50308000    4.47514000      0.465748    1.05358600   -1.74588900
Ge    7.51244000    9.86595000   13.38873000      0.205455   -0.76596100   -0.37129200
Ge    6.84906000   14.54589000    4.51178000      0.415198   -0.45320000   -0.23464200
Ge   12.05019000   12.66987000   15.35106000      0.855837   -0.69955700    0.05455500
Ge    8.42674000   20.22947000    3.30413000     -1.378421    0.50446800    0.70617700
Ge    9.22342000   16.48545000   12.70466000      0.768557   -0.38834800    0.62896000
Ge   11.68144000    1.77589000    4.74266000     -0.000805   -0.55902900    0.36392300
Ge   12.22663000    4.12603000   13.81297000      0.988073    0.38371400    0.13420100
Ge   17.07564000    5.27239000    4.56860000      0.438024    2.07083300    0.52469300
Ge   13.47615000    8.62790000   14.14944000      0.232288    0.08350600   -0.42948200
Ge   15.04316000   13.16715000    4.06466000     -0.281174   -0.30182800   -0.63712900
Ge   13.17962000   16.74795000   12.52898000     -0.098758   -0.88824600    0.65020700
Ge   11.99548000   17.41090000    4.12689000     -0.500346    0.05883600    0.05366300
Ge   11.24071000   19.78015000   17.04008000     -0.912796    0.31460100   -1.13702600
Ge   22.40531000    3.78995000    5.55509000     -0.361492    0.44437400    0.25739200
Ge   22.20549000    2.72650000   13.75767000      0.484233   -1.12947200    0.03358800
Ge   18.78088000    7.62074000    7.19755000      0.056949   -0.66534100   -0.08050000
Ge   18.11659000   10.76094000   12.84012000     -0.342593    0.25085900   -0.03524300
Ge   21.23685000   16.65278000    1.72790000     -0.336306    0.60328600   -0.14791900
Ge   18.27619000   16.00261000   13.95506000      0.228200   -1.11702100    0.04459500
Ge   19.30247000   20.05346000    5.63677000     -0.059328   -0.14279400   -0.08095600
Ge   21.88890000   20.60563000   13.05397000      0.643252    0.63627000    0.18271400
Ge    4.30770000    2.92034000    2.87503000      0.075966    0.23774700   -0.28250200
Ge    6.25071000    1.68136000   13.13001000     -0.526197   -0.57200200   -0.53655300
Ge    4.95797000    7.90719000    4.62009000     -0.416605    0.31632100    0.07032800
Ge    6.75307000    4.79740000   14.21856000     -0.084861    1.49862900    0.08135800
Ge    4.38796000   12.80415000    0.91827000     -0.334349    0.13697500    0.58928500
Ge    4.03409000   11.36059000   12.58620000     -0.126934   -0.47403300   -0.39155100
Ge    5.21331000   21.60792000    6.24742000      0.008439   -0.61820200   -0.47845700
Ge    7.24773000   19.81001000   12.74203000     -0.530409   -0.77497800   -0.87441400
Ge   11.46266000    3.71855000    3.01497000     -0.322554    0.32558100    0.88412500
Ge    7.85890000    3.87016000   12.13560000      0.794749   -0.12628500   -0.57500600
Ge   12.04683000    7.75624000    1.69517000     -2.426355   -0.15133600   -0.78063200
Ge   10.75559000    6.89052000   12.78732000     -1.110792    0.49840500   -0.61701900
Ge    8.12811000   13.43791000    1.38684000      0.420518    0.28306700    0.20093500
Ge    8.53714000   14.17325000   10.92829000     -0.111914    0.74174200   -0.57812500
Ge   11.70440000   21.63323000    0.91255000     -0.057290    0.16397600   -0.12218800
Ge   11.24323000   19.61729000   12.55522000     -0.442091    0.52559900   -0.48834700
Ge   21.87624000    0.29153000   16.77903000      0.598448   -0.23676300    0.83958300
Ge   12.68961000    2.37993000   10.53372000     -0.062311    1.04844600    0.37714600
Ge   16.77594000    8.79497000    1.15186000     -0.628890   -0.47263900    0.60267400
Ge   14.81808000    8.51119000    9.65255000      0.618723    0.45282100    2.04325900
Ge   17.99711000   12.12688000    2.62257000     -0.447438    0.25049200    0.45822600
Ge   16.91539000   15.79825000    8.73790000      0.043870    0.20228400   -0.62367200
Ge   16.73714000   20.23721000    2.99829000      0.058471    0.77079000   -0.34000500
Ge   14.37369000   19.25853000   10.41624000      0.577429   -0.10801500   -0.46559900
Ge   21.03392000    1.73453000    1.98973000      1.374849   -1.19087000   -0.31593700
Ge   21.56467000    1.10329000   10.49328000     -0.335211   -0.73540400   -0.36788400
Ge    0.97371000    8.49113000    1.55345000      0.320856    0.18780300   -0.04925800
Ge   21.50777000    9.83066000   12.61872000      0.163529    0.12249500    0.75681300
Ge   20.25056000   12.54676000    1.55286000      1.350133    0.48341900   -0.05861900
Ge    0.65911000   14.76317000   10.51406000      1.206648   -0.96558300    0.52300700
Ge    0.56439000   19.09511000    4.68916000      0.989484    0.26818300   -0.83128300
Ge   18.28929000   18.77956000   11.38114000     -0.261667    0.43056900   -0.64994600
Se   20.38967000    0.23907000    0.05548000      0.311847    0.13576000    0.04184700
Se    1.24474000    2.15078000   10.59606000     -0.143287    0.26824800    0.08356100
Se    2.55860000    9.97204000    3.13017000      0.320931   -0.22630600   -0.81998000
Se   22.37024000    7.33036000   11.57783000     -0.053187    0.12712000    0.08966500
Se   22.48161000   12.12730000    0.48181000     -0.132574    0.09338400   -0.52725000
Se    1.51251000   12.71868000    9.04876000     -0.133097    0.07232400    0.46073300
Se    2.40038000   17.37483000    5.27137000      0.456235    0.61783600    0.00076500
Se    1.91137000   16.97709000   11.47814000     -0.463897   -1.02584100   -0.50314400
Se    6.19266000    2.30631000    1.08357000     -0.772637    0.95585400    0.99006200
Se    6.68658000    2.09897000   10.52992000     -0.070519    0.39715800    0.47221000
Se    6.95523000    5.93246000    1.89975000      0.039734    0.42590800    0.04581100
Se    8.21435000    7.35444000   12.35282000      0.696278   -0.13085800    0.20382300
Se    7.79890000   10.67353000    1.44431000     -0.259004   -0.11320000   -0.66666200
Se    6.40868000   13.04411000   13.18625000      0.398025    0.40708600   -0.21942500
Se    5.10138000   20.69237000    2.39030000      0.467812   -0.72660800   -0.29481700
Se    8.77578000   18.37029000   11.37168000      0.103448    1.44648300   -0.91019000
Se   13.68672000    1.23987000    0.51119000     -0.600650   -0.94017100   -1.24056700
Se   11.91438000    1.77246000   13.64721000     -0.000349   -0.73323900    0.03871800
Se   12.47623000    7.62785000   18.22372000      0.209042    0.66892600   -0.55541700
Se    9.65830000    8.94556000    9.83224000      0.950518    0.06577600    0.27937300
Se   12.81950000   13.24977000    2.28490000      0.733111    0.40462500   -0.02950300
Se   11.64618000   10.91227000    8.73441000      0.590784   -0.16640100   -0.57808400
Se   13.97341000   16.76020000    2.38139000      0.112981    0.27637400   -0.50815600
Se   12.20622000   17.78353000   10.40936000     -0.228935    0.32218200    0.06236900
Se   19.58831000    3.49301000    2.39586000     -1.503681    0.44211400    0.06660300
Se   16.07131000    2.16656000   12.01749000     -0.125186   -0.42161100   -0.28708300
Se   15.47100000    7.95952000   17.99393000      0.909903    0.48322800   -0.43647400
Se   17.64138000    6.18377000   12.24649000     -0.053715    0.13111600    1.37214500
Se   18.78193000    9.64294000    0.18468000     -0.056726   -0.03177700    0.21854800
Se   17.65413000   13.86403000    6.44685000      0.364861   -0.05519000    0.66025900
Se   20.31395000   19.22699000    0.19788000      0.574097    0.01702300   -0.00525100
Se   16.21722000   18.41100000    8.68946000     -0.405737   -0.47036300    1.07137700
Se    2.13359000    3.06871000    1.59975000     -0.596061   -0.27158000   -0.24681800
Se    5.52198000    6.77979000   10.64861000      0.334413    0.26645000    0.33219600
Se    4.84903000   10.54112000    1.75464000      0.330319   -0.13407000    0.99219500
Se    4.99267000   12.11044000   10.24942000      0.187910   -0.21495900   -0.43739300
Se    2.63606000   15.26460000    2.12809000     -0.374039    0.96797500    0.15531000
Se    2.27167000   13.29180000   12.85326000     -0.536570   -0.17193100    0.42338900
Se    3.04699000   21.47835000   18.79641000     -0.907948   -0.11749100    0.09323900
Se    5.96445000   21.00002000   10.08434000      1.392679    0.88455900   -0.59399200
Se   12.58596000    5.29762000    1.54869000     -0.620977   -0.37578600   -0.66834800
Se    5.77266000    4.94231000    7.97861000      0.672163    0.58753700    0.63404900
Se   11.91423000   10.37936000    1.09358000     -0.260746    0.36838100    0.26300600
Se    7.53800000   11.90903000   10.99937000     -0.659774   -1.00146500   -0.07627100
Se    9.69155000   15.71212000    1.80430000      0.419798   -1.00542100    0.62952500
Se   12.89767000   12.70275000   12.54813000      0.155672    0.49070500    0.81397700
Se    9.20387000   21.20506000   18.21636000      0.965313    0.71473000   -0.24565300
Se    8.21589000   22.09583000   12.60808000      0.254249    0.36515000    0.05110100
Se   15.29571000    4.71393000    1.06213000      0.595207   -0.61964000   -1.30771000
Se   16.91779000    7.10462000    8.90652000     -0.399701    0.23899400   -0.57128300
Se   15.22720000   10.64567000   18.27974000      0.155336   -0.00645300    0.22975600
Se   14.42084000   10.79125000   12.22254000     -0.117434   -0.10152300    0.55010500
Se   17.76129000   14.73181000    2.91832000     -0.310956   -1.11165900   -0.01075400
Se   15.02200000   12.62975000   10.11916000      0.053895    0.07219800    0.64644100
Se   17.63655000   22.19165000    0.71106000     -0.586585   -0.69214300    0.56132700
Se   14.91298000   20.89348000    8.60983000     -0.220397    0.28967900   -0.57115200
Se   21.39541000    5.28469000    0.28003000     -0.291964    0.10679700    0.27469000
Se   20.78091000    3.39971000   11.77434000      2.565533    0.30363800   -0.88671900
Se   20.30925000    6.80492000    2.41205000     -0.990719    0.96009400   -0.81861700
Se   20.60738000   10.92453000   10.51469000     -0.339555   -0.19228200   -0.37988800
Se   19.29954000   14.56854000    0.26541000      0.857301    0.56412800    0.07069000
Se   20.37846000   16.06427000   12.23078000      0.449679   -0.17878700    0.57515000
Se   20.95367000    0.09834000    3.95763000     -0.370846    0.00725700   -0.00849700
Se   17.09176000   20.86428000   11.47996000     -0.095754    0.05760700   -0.61542700
Se    2.87682000    3.81885000    8.40159000     -0.032011    0.52431200   -0.05407000
Se   22.43376000    3.86422000   17.37416000      0.491982   -0.78377300   -0.54848300
Se    3.37376000    9.12700000    8.78236000     -0.126249   -0.19969700   -0.33883400
Se    1.00800000    9.68602000   16.97849000      0.309736   -0.24540200    0.10117200
Se    4.08071000   17.90586000    8.27444000      1.175553   -0.44071100    0.12900900
Se    0.00946000   17.95497000   15.44556000      0.064835   -0.79781900    0.04880800
Se    2.36245000   20.05800000   12.55368000     -0.581499    0.22686000    0.34523500
Se    0.89892000   20.86520000   17.67576000      0.813941    0.40495100   -0.16170500
Se    5.63655000    4.09150000    4.79798000      0.118720   -0.44427000   -0.16781300
Se    5.63345000    4.83802000    0.21714000     -0.231572   -0.02040300   -0.36293500
Se    5.64060000    9.54961000    6.32432000      0.451613   -0.56941900   -0.04229000
Se    4.77447000    7.90483000   16.54459000     -0.730632   -0.62168000   -1.33061600
Se    6.49733000   15.85566000   11.14646000      0.122415   -0.65245100   -1.20544300
Se    6.76877000   16.02988000   18.18091000     -0.200644    0.48465300   -0.41683500
Se   10.46514000   17.94817000    6.66240000      0.340511    0.39254900   -0.11225100
Se    6.65579000   20.61935000    0.21698000     -0.417405   -0.16334800    0.21336300
Se   10.16962000    2.24350000    9.85961000     -0.188695   -0.49189900    0.10790000
Se   12.92729000    3.45752000   16.83681000      0.987687   -0.77847100   -0.84259600
Se   14.09696000    7.94867000    7.46417000     -1.288591   -0.27320300   -1.99368900
Se   13.46245000   10.21263000   15.97284000     -0.723701    0.54680600   -0.02810000
Se   11.99272000   14.86610000    7.80820000     -0.580769    0.09717200    0.90382200
Se   14.42375000   15.49452000   17.54118000      0.248739    0.22484400   -0.44269600
Se   12.61310000    0.05309000    7.23706000      0.284892    0.53704700    0.35448700
Se   15.31703000   19.87763000   17.22592000      0.138970   -0.00453700   -0.27609100
Se   13.86969000    4.64504000   10.05881000      0.329858   -1.07671700   -0.26266100
Se   20.57755000    1.61777000   15.22625000     -0.485893    0.85744800   -0.31649900
Se   18.78264000    9.33249000   10.61737000     -0.125574    0.06418900   -0.80048600
Se   17.43910000   10.39847000   15.23834000     -0.875816    0.93119000    0.80865600
Se   15.15442000   16.36034000    6.69145000      0.153788    0.16100900    0.48409100
Se   19.33917000   13.60002000   15.60633000      0.090473   -0.81209400   -0.73661700
Se   18.54116000   20.54187000    8.05989000      0.328797   -0.03911300    0.11516400
Se   18.65898000   18.59540000    2.85431000      0.688786    0.76897300   -1.39839600
Se    5.12583000    1.12226000    7.57504000      0.410555    0.38733000   -0.12916800
Se    4.25780000    2.90178000   16.86221000     -0.706615    0.06301600    0.67441100
Se    8.05815000    8.22958000    8.38482000     -1.642954   -0.47215500   -0.48057600
Se    4.69865000    9.08577000   18.53692000      0.123515    0.25226000    0.84368100
Se    6.32962000   16.87325000    5.86105000      0.351460   -0.36723800   -0.52557800
Se    5.26652000   12.46593000   17.63557000      0.493477   -0.27277600   -0.60201600
Se    2.17969000   20.35227000    9.47199000     -1.551529    1.27920000    0.67289000
Se    0.88882000   19.49421000    2.18806000     -0.380378   -0.03589100    0.29947000
Se    8.68419000   21.80978000    8.19253000     -0.149904    0.09470800    0.39943400
Se    9.76869000    3.16668000    1.38462000      0.228019    0.21761200   -0.29175500
Se   10.66836000    5.18694000    8.83296000     -0.199182    0.59177800   -0.34154800
Se    9.18242000    5.84605000   17.75661000     -0.357929   -0.23109500    0.31218000
Se    9.41604000   11.90856000    5.57473000      0.665610    0.91670900    0.73209100
Se    8.07794000   14.13080000   17.83652000     -0.018005   -0.26208000   -0.34868600
Se   11.75725000   21.38773000   10.66401000     -0.290388    0.16655500    0.15662400
Se   11.70701000   13.94701000   17.81688000     -0.499779   -0.45181000   -0.13947700
Se   15.27338000    1.42803000    7.06955000      0.035851    0.21090100    0.32664000
Se   16.50053000    2.79263000    0.07078000      0.371175    0.26109900    0.17241800
Se   15.52108000    5.24105000    7.06314000      0.467721    0.47664900   -0.08139300
Se   15.63665000    7.54141000   15.14149000     -0.219905   -0.26264300    0.51205500
Se   15.79233000   10.85564000    8.87840000      0.431299   -1.46712200   -0.60082100
Se   14.25230000   13.16086000    0.29807000     -0.075687   -0.08167100   -0.16229100
Se   13.73455000   19.04115000    5.42201000      0.426327   -0.23618300    0.67530100
Se   17.43233000   17.51825000   18.85102000     -0.543536   -0.17212800    0.08771600
Se   20.92256000    1.05022000    7.91524000     -0.315619    0.44858300    0.55563800
Se    1.23660000    0.34170000   13.43010000     -0.648113    0.58211100    0.11279000
Se   20.45139000    6.97737000    9.17837000      0.444291    0.21147400    0.72728700
Se   21.03953000    7.15896000   17.38336000     -0.404520   -0.01412200    0.16047300
Se   21.56168000   10.91320000    7.01887000      0.301286   -0.44822400    0.18538200
Se   20.75041000   11.03760000   17.44024000      0.085891    1.02280300    0.34864200
Se   19.30589000   16.94978000    7.78305000     -0.334656   -0.20604700    0.20140200
Se   19.34406000   17.27176000   15.95047000      1.756416   -0.12308900   -0.33510600
Se    4.11095000    1.23274000   11.65777000      0.049378   -0.03711800   -0.34297600
Se    2.58450000    1.70832000   15.18128000      0.027298   -0.87038600    0.14206800
Se    0.22167000    7.07737000    7.64812000     -0.771276   -0.63693400    0.40286100
Se    0.77807000    9.90727000   14.35186000      0.784586   -0.49986100    0.09905700
Se    3.38109000   14.84194000    6.07137000      0.886451    0.12974200    0.34302900
Se    1.95040000   13.61927000   16.90868000      0.420645    0.31176000   -0.05238000
Se    0.56187000   16.79649000    9.07422000      0.469398    0.83789700   -0.19301100
Se    3.02416000   20.42715000   14.91868000     -1.362386   -0.32203900    0.11609300
Se    6.37213000    0.69602000    3.22091000     -0.107403   -0.14982500    0.44644900
Se    8.04991000    0.15209000    1.66216000      0.679455   -1.22849200   -0.37504400
Se    9.48337000    8.93228000    6.40147000      2.173462    0.26051700    1.08588200
Se    4.43413000    5.56981000   14.33748000      0.402945    1.35658500    0.68665700
Se    5.90017000   12.13054000    4.40843000     -0.724536    0.80419600    0.36872900
Se   10.28332000   13.56641000   13.84271000     -0.743684    0.77890400   -0.35615200
Se    8.08395000   17.50154000    4.19749000     -0.117684    0.20756700   -0.04716400
Se    7.86440000   16.31556000   14.67130000     -0.850232    0.22733200    1.13926400
Se   13.63298000    0.29146000    3.85491000     -0.386178    0.89377600    0.05708800
Se   13.98448000   22.08978000   16.73007000     -0.287113    0.00477100   -0.11835500
Se   11.90246000    9.79386000    5.08982000     -0.163101   -0.68650000    0.32293300
Se   11.55609000    6.17558000   15.01059000     -0.074981    1.06610100    0.54424000
Se   12.86269000   12.89113000    5.25210000      0.135360   -0.00689700    0.52331300
Se   14.15210000   14.39388000   14.38985000     -0.610486   -0.70097500   -0.63369500
Se   12.61223000   18.98493000    7.74103000     -0.686073   -0.05654200   -0.94973100
Se   12.30394000   18.82226000   18.91745000      0.613594   -0.64651100    1.08840200
Se   20.52383000    2.20231000    5.32112000      0.071481   -0.12735300   -0.19079300
Se   17.21023000    0.67977000   16.84997000      0.332478   -0.45201900   -1.00458100
Se   19.28291000    4.99276000    6.69672000     -0.047731    0.28545300   -0.82223900
Se   18.62620000    5.50001000   15.62818000     -0.307472   -0.23230700    0.31149600
Se   19.33756000   11.44868000    4.78258000      0.307144    0.18338400   -0.72678500
Se   17.68255000   13.15840000   11.92310000     -0.402547    0.43267100    0.04273200
Se   17.95182000   17.34726000    4.57804000     -0.634337   -0.60133600    1.41170400
Se   17.63752000   19.94491000   14.37290000      0.182145   -0.80907400    1.14886900
Se    2.55983000    7.15064000    5.42893000      0.714073   -0.18072100    0.00032300
Se    1.49712000    7.06769000   13.44181000     -0.483640    0.44694000   -0.22118700
Se    2.55623000   10.75303000    5.37530000     -1.120211    0.62469100    0.47762700
Se    4.55276000   10.25708000   15.12322000     -0.339383    0.04803400   -0.35388700
Se    6.67933000   13.98767000    7.48629000     -1.779008   -0.30065900   -0.11502200
Se    3.35142000   17.50034000   17.70885000     -0.760197    1.89755800   -0.69020400
Se    1.37441000   19.48236000    7.22774000     -0.150738   -0.14538500    0.33978000
Se    5.62187000   22.46524000   15.89045000      0.231759   -0.51416500   -0.97632000
Se    9.23053000    1.05072000    5.54082000      0.752205   -0.69653600   -0.62075200
Se    7.83904000    2.43312000   17.58311000     -1.482889   -0.23257600    1.59686800
Se   12.04570000   12.93627000    9.76444000      0.206196   -0.15570800   -0.04482600
Se    9.28808000   11.19402000   17.16902000      0.516235    0.20291100    0.24541300
Se    8.84160000   14.34063000    8.03572000      1.054082   -1.32449400    0.73879000
Se   10.99901000   17.59285000   14.20075000      0.732342   -0.66827500   -0.05299700
Se   12.03912000   19.85664000    4.00004000     -0.454855    0.79020800    0.17227400
Se    9.88747000   17.78398000   17.75388000     -0.898276   -0.43019500   -0.53766700
Se   11.98067000    3.30951000    6.66035000     -0.045443    0.18810400    0.09795300
Se   17.47428000    3.09778000   15.82061000      0.223093    0.27608800    0.04562800
Se   16.42255000    8.79987000    5.85600000     -0.081207   -0.11803600   -0.04903500
Se   16.14229000    8.88303000   11.96562000      0.535818   -0.24198800    0.30977300
Se   16.58989000   11.49417000    5.76793000      0.198668    0.37861500    0.00199600
Se   15.30626000   16.53184000   15.40794000     -0.161979    0.86048000    0.39997700
Se   16.66542000    3.01802000    4.47337000      0.713636   -1.87041900   -0.92340800
Se   18.72776000    3.69629000   12.40945000     -2.738465    0.03145800    1.10344900
Se    2.08104000    2.47609000    6.39583000     -0.667289   -0.20794300   -0.79763000
Se    0.56060000    4.51445000   15.08943000     -0.071724    0.57390100    0.30124000
Se   19.03200000   12.92177000    8.27172000     -0.363647    0.19671700   -0.66587900
Se   20.91312000   12.16059000   13.86703000      0.310039    0.20457400   -0.99306300
Se   21.60497000   14.06580000    7.17569000     -0.291718   -0.21685600   -0.35842300
Se   20.24784000   18.69908000   12.67288000      0.472927   -0.85133200    1.07438200
Se   19.84054000   18.98297000    9.38554000      0.348277    0.44262100   -0.41492200
Se   20.95211000   20.86344000   15.69800000     -0.487802   -0.37081000    0.45931300
Se    3.13532000    1.04570000    4.26430000      1.286731    0.03650100    1.37204900
Se    6.61946000    2.80146000   15.56780000     -0.071685   -0.73971200    0.00581200
Se    1.70270000    6.44302000    0.23391000      0.432897    0.40584900    0.21895400
Se    5.07626000    8.73850000   12.73463000     -0.131933   -0.44436300   -0.25742800
Se    2.11893000   13.03428000    2.26222000     -0.425315   -0.66353000   -0.20626100
Se    5.05621000   14.72830000   14.70788000      0.378787    0.06290400    0.67899200
Se    4.27876000   18.41188000    2.64224000      0.118620    0.12029500   -0.99091300
Se    4.77366000   18.70566000   12.29732000     -0.523855   -0.72382100    0.02688800
Se   10.36539000    0.83675000    2.30498000     -0.213329   -0.13968000   -0.09743700
Se   10.85104000    0.33016000   16.82506000     -0.651447   -0.52373300    0.40206700
Se    9.73910000    7.43413000    2.47159000     -0.063618    0.03595000    0.41749600
Se    7.87971000    8.86765000   15.80348000     -0.336649   -0.66725700    0.20148900
Se   10.36795000   11.37630000    3.14895000      0.446050   -0.49291500   -0.31150600
Se   10.07310000   11.02357000   11.80842000      0.244689    0.03772300   -0.02797600
Se   10.05705000   19.09457000    2.13476000      0.374622   -0.15338100   -0.75540600
Se   15.00889000   18.63944000   12.85400000     -0.237084   -0.22518800    0.48449700
Se   14.71781000    3.36687000    5.80056000     -0.659553   -0.95449000   -0.04142300
Se   13.95884000    1.44446000   15.25522000      0.182648    0.26728500    0.02619900
Se   14.97238000    6.30153000    2.85826000      0.979347    0.38348100    1.38104000
Se   12.49096000    7.92383000   11.36175000      0.119248   -0.10188600   -0.60965300
Se   16.13169000   10.46814000    2.96699000      0.038605    0.37137000   -0.59139800
Se   17.10117000   14.10570000   16.29739000      0.561749    0.59437800    0.01215400
Se   15.23041000   15.72498000    4.32009000      0.431147   -0.35061200   -0.59664800
Se   14.73369000   22.14594000   12.95566000     -0.406706    0.69184500   -0.23442200
Se    1.42967000   21.45862000    5.91602000      0.220553    0.41144400   -0.45587900
Se   19.41010000    0.22679000   13.03140000      0.726961    0.50905100   -0.28689900
Se   22.47316000    7.43571000    3.68462000      0.380689    0.04417100    0.01316900
Se   19.57852000    8.74342000   13.67688000      0.737902   -0.50132400    0.54803300
Se    1.26025000   14.17042000    5.68778000     -0.359574   -1.67770600    0.31506400
Se   22.48301000   15.38217000   15.07121000     -0.109376    0.96752600    0.35056700
Se   21.40256000   17.51565000    5.11745000      0.475935    0.18305200   -0.29410800
Se   21.46808000   20.91696000   10.60868000     -0.021904    0.81958400   -0.40081200
Se    2.97349000    5.14305000    3.29852000     -0.737246   -0.83789600    0.23483600
Se    2.67402000    5.49752000   11.67096000     -0.590123   -1.42337200   -0.11090600
Se   21.22882000   10.37137000    3.48691000     -0.251402    0.67519100    0.32781600
Se    1.73768000   10.32606000   11.69195000     -0.035515    0.59796000    0.46602300
Se    0.20843000   16.07896000   18.73603000     -0.434783   -1.42348200    0.37762000
Se    3.80353000   15.05655000   12.67668000     -0.431205    0.89105700   -0.48842700
Se    1.88966000    0.45439000    2.57791000     -0.925679   -0.26763700   -1.72070200
Se    5.34581000   20.20225000   14.87618000      0.332917    0.38107800    0.51438900
Se    9.58122000    4.77600000    4.94093000      1.052752   -0.01308300    0.17491800
Se    9.08074000    2.17627000   13.90648000     -0.321585    0.65305100    0.36084400
Se    7.20373000    6.56730000    4.96681000     -1.035498   -0.68778200    0.37484400
Se    8.21694000   12.48771000   14.62085000     -0.399999   -0.13475900    0.64773600
Se    5.53548000   14.73487000    2.05671000      0.325974   -0.36177800   -0.16138300
Se   10.92495000   15.42663000   11.10847000      0.043747    0.03092500   -0.38717300
Se    7.43305000   20.33351000    6.13053000     -0.259100    0.39027100    0.41814400
Se    8.26182000   20.14040000   15.04433000     -0.494321   -0.36313500    0.72313500
Se   14.40937000    2.25989000    2.42750000     -0.141316   -0.44840100    1.33853300
Se   10.67570000    4.59360000   11.99702000      0.265284    0.16426900   -0.12402300
Se   13.75729000    8.58821000    2.94496000      1.151166    0.24590500    1.47463100
Se   10.84317000   10.15958000   13.80438000     -0.049438   -0.30417800    0.56854100
Se    9.61384000   14.20466000    4.85722000     -1.028891   -0.09201800   -0.20661600
Se   14.84671000   15.07326000   10.62326000     -0.315919    0.68713700    0.58328500
Se   14.29456000   19.90881000    1.73129000      0.758015    0.51096400   -0.04717800
Se   13.36004000   20.29448000   13.89163000      0.724882   -0.22095600    0.12872100
Se   17.96018000    6.01578000    0.88805000      0.073616   -0.08972200   -0.31011200
Se   14.68488000    4.82186000   13.52556000     -0.537004   -0.50636300   -0.34619700
Se   18.48991000    8.04656000    3.67731000     -0.021525   -0.29346600    0.32451800
Se   21.20586000   13.48860000   11.60452000     -0.138136    0.17922700    1.02845300
Se   21.15893000   14.54107000    3.21180000     -0.284392   -0.70587800    0.03504200
Se   16.93205000   16.80893000   11.77574000     -0.171436    0.52746300    0.06232900
Se   16.99413000   20.82091000    5.42112000     -0.215341    0.24774900   -0.44963600
Se   16.69719000    1.34632000    9.70583000     -0.221875    0.06462200    1.06607700
