384
22.54784000 22.54784000 18.93360000
Ge    4.69979000    4.18048000   10.24526000      0.705371    0.43786100    0.16293600
Ge    4.10779000    6.55699000    1.75236000      0.765412    0.86587700   -1.21475900
Ge    3.94487000   11.15457000    7.36847000      0.492556   -0.23268100    0.02189700
Ge    6.93063000   10.48823000   18.10264000     -0.422470    0.02816600   -0.57564700
Ge    4.79841000   14.41667000    9.35467000      0.173571    0.61168400    0.37155700
Ge    8.14920000   17.44135000    1.18002000     -0.219571    1.09022300   -0.18204200
Ge    7.80500000   19.61983000    8.93160000     -0.609307   -0.00803000   -0.11680300
Ge    5.16810000    0.10743000   18.19341000     -0.195274   -0.05450800    0.12288100
Ge    8.29846000    5.97992000    9.44696000     -0.606061   -0.29763600    0.37301300
Ge   11.88890000    5.24210000   17.74900000     -1.098085    1.01147600    1.22684100
Ge   11.70963000    7.53377000    8.77251000     -0.578331   -0.18618800    0.91810900
Ge   10.35855000   12.17045000    0.28233000     -0.117691    0.05754500   -0.60396600
Ge    9.53389000   16.57327000    8.55844000      0.379892    0.95020900    0.89784500
Ge   12.11043000   15.58613000    1.01145000     -0.281056   -0.41099700   -0.28383600
Ge    9.43072000   22.45422000   10.49708000      1.167782    0.25773600   -0.73085100
Ge   15.29439000   21.64529000    0.21786000     -0.528518   -0.09666000   -0.28392500
Ge   18.25191000    5.46171000   10.16416000      0.314712   -0.75969900   -1.08096200
Ge   18.27653000    7.25164000   17.50063000      0.225436    0.01490900   -0.30253100
Ge   18.62709000   15.07710000   10.70604000     -0.079755   -0.68921300   -0.34442800
Ge   17.67662000   11.78109000   18.32301000      0.033620   -1.19677300   -0.55546000
Ge   13.76823000   16.30552000    8.85502000     -0.519089    0.38753600   -0.17824400
Ge   16.80278000   14.17171000   18.76254000     -0.108547    1.19453400    0.98817700
Ge   16.19735000    3.89505000    9.20898000     -0.556613    0.37453500    0.24670100
Ge   18.74576000    3.91432000   18.44636000      0.096624   -0.21561400   -0.01949000
Ge    0.88892000    4.62080000    9.68531000      0.091489   -0.29212600    0.54087600
Ge   21.65703000    4.87661000    3.01788000      0.767831   -1.10067700    0.24711800
Ge    0.23378000   10.32577000    9.20373000      0.330133    0.35337600   -0.63385400
Ge   21.49370000    9.24030000   18.80434000      0.872090   -0.81408100    0.20975900
Ge   21.00359000   15.48660000    9.06444000     -0.441742    0.22063000   -0.15545100
Ge    4.05611000   15.37629000   17.77433000      0.130048   -2.47054400    0.30521300
Ge   18.94039000   22.44574000   10.55208000      0.169336   -0.43780700   -0.15203500
Ge   21.20051000   20.56679000    2.15438000      0.057506   -0.02564600   -0.43825100
Ge    2.72394000    6.74886000    7.80550000      0.620074    0.11535400    0.54548600
Ge    1.88413000    7.33397000   16.70539000      0.067904    0.11555800    0.32356500
Ge   20.46686000    8.78533000    5.14368000     -0.520775    0.04933100   -0.00682600
Ge    3.44048000   12.71823000   15.21882000     -0.096648   -0.01467700    0.73767300
Ge    4.84875000   18.62885000    4.97238000     -1.016371    1.23354700    0.42108200
Ge    0.64333000   18.28709000   18.09578000     -0.079375    0.44202200   -0.30863200
Ge    4.29084000   19.46623000   10.07445000     -0.093324   -0.79992100   -0.74787800
Ge    1.88219000    1.92875000   17.77636000     -0.199140    0.25614000    0.50347300
Ge    9.45969000    2.83028000    7.15876000     -0.193168    0.63004900    0.15654000
Ge    7.03883000    6.48924000   16.26730000      0.137527   -0.05793200    0.14613500
Ge    7.85927000   10.98217000    3.96825000      0.154032   -0.88540500   -0.63973900
Ge   10.20491000    7.82629000   16.83968000      0.068638    0.70890400   -0.73973700
Ge    6.59821000   17.16584000    8.54186000     -0.140400   -0.16347300    0.39716000
Ge   10.13116000   15.57148000   15.78032000     -0.002250    0.37368000    0.31981000
Ge   10.69623000   21.27499000    6.59753000     -0.159894    0.01903300   -0.40916900
Ge   10.11939000   21.35836000   14.35619000      1.472087    0.96490400   -0.49971500
Ge   12.49008000    7.33971000    4.94112000     -0.074480    0.88558600    0.01531600
Ge   15.43624000    4.86771000   15.89428000     -0.093480    0.16453600    0.15046800
Ge   13.90664000   10.45446000    6.97920000     -0.715287    0.31675600   -0.19843600
Ge   15.47667000   12.25025000   15.83956000     -0.261052   -1.35690900   -0.40598700
Ge   12.93032000   15.41716000    5.55216000     -0.133305   -1.13924900    0.39102600
Ge   14.79779000   17.80692000   18.67041000      0.683648    0.44436000    0.85727800
Ge   14.11703000    0.26797000    9.84224000     -0.212334    0.27317400   -0.01048000
Ge   17.21064000   22.28966000   13.98108000     -0.629205    0.34289500    0.74427800
Ge   20.47231000    4.41537000    8.79450000     -0.208639    0.34430500   -0.14247800
Ge   20.72458000    6.46510000   13.52547000     -0.543273   -0.08608500    0.17720600
Ge   18.17174000   10.38859000    7.43634000      0.280399    0.18532700    0.67766100
Ge   20.60241000   15.24647000   16.93478000      0.333331    0.03343400    0.01547000
Ge   19.83208000   15.73200000    5.51433000     -0.436835   -0.97447100    0.03994600
Ge   17.26206000   18.14636000   16.52608000     -1.097262    0.23701200    0.23359800
Ge    0.66860000    0.70468000    7.48875000      1.102793   -0.40757900    0.47003500
Ge   18.56291000   20.91601000   17.07294000      0.211342    0.03498700    0.00762700
Ge    6.72420000    3.14249000    6.73813000      0.167316   -0.96025000    0.53349500
Ge    3.66230000    3.40689000   13.62831000     -0.378889   -0.20700500   -0.82507900
Ge    0.48002000    8.93290000    6.10375000      0.379619    1.09339000   -0.43208800
Ge    2.75410000    8.06433000   11.04505000      0.557554    0.13907600    0.18062900
Ge    0.78870000   15.77494000    4.01169000     -0.184700    1.11907700   -0.98221400
Ge    2.53004000   17.77170000   14.96481000     -0.009444    0.24275800    0.26605500
Ge    2.91380000    0.51132000    9.08746000     -0.310571   -0.00130500    0.30585700
Ge    7.32601000   18.41295000   16.50219000      0.454338   -1.33535700    0.84532400
Ge    7.98398000    3.95263000    3.20906000     -0.895278   -0.44424100   -0.32362300
Ge    9.89355000    2.60925000   16.60254000      1.401135    0.29091100   -1.06211100
Ge    8.28651000    8.51693000    4.42929000      0.762215    0.57142500   -1.05201700
Ge    7.44899000    9.91207000   13.35020000      0.237087   -0.98881100   -0.16372900
Ge    6.84187000   14.53997000    4.52061000      0.359475   -0.46700700   -0.13680100
Ge   12.04316000   12.64869000   15.28035000      1.122555   -0.95108700    0.27309800
Ge    8.39987000   20.28118000    3.29227000     -0.707335   -0.09895300    0.48301500
Ge    9.21170000   16.51025000   12.68992000      0.887938   -0.72499700    0.45583400
Ge   11.70409000    1.77929000    4.74508000     -0.081304   -0.57803300    0.24530500
Ge   12.25022000    4.16760000   13.79852000      0.869877   -0.23203100    0.02929800
Ge   17.07537000    5.20857000    4.59693000      0.632264    2.42713500    0.59928400
Ge   13.52366000    8.64986000   14.17520000      0.102810   -0.24766700   -0.67982600
Ge   15.01089000   13.16352000    4.04043000     -0.189661   -0.29999500   -0.66455400
Ge   13.16250000   16.79829000   12.54703000     -0.027765   -1.15882700    0.64718300
Ge   11.99066000   17.43333000    4.11244000     -0.666209    0.11436600   -0.16215700
Ge   11.22239000   19.78354000   17.00630000     -0.827043    0.29719200   -0.99788900
Ge   22.36801000    3.78326000    5.52951000     -0.003460    0.87423500    0.22224600
Ge   22.20239000    2.74287000   13.77304000      0.728247   -1.21449400   -0.27024600
Ge   18.73312000    7.61439000    7.18444000      0.387492   -0.51957500   -0.34805200
Ge   18.06008000   10.81147000   12.81293000     -0.244393   -0.20351500    0.25190400
Ge   21.20159000   16.64982000    1.70195000     -0.416881    0.52655600   -0.22299400
Ge   18.27967000   15.99691000   13.91550000      0.300380   -1.09716600    0.26998900
Ge   19.27075000   20.05273000    5.64695000      0.314045   -0.27664000   -0.09462700
Ge   21.88114000   20.62835000   13.05592000      0.680426    0.86223300   -0.08484300
Ge    4.30622000    2.86879000    2.88315000      0.097753    0.34866100   -0.39173900
Ge    6.21292000    1.62399000   13.11508000     -0.266070   -0.44710200   -0.25108600
Ge    4.94092000    7.83388000    4.55852000     -0.199649    0.68912200    0.37374700
Ge    6.73936000    4.79023000   14.25514000     -0.097669    1.89140200   -0.08307200
Ge    4.37802000   12.73104000    0.92063000     -0.418725    0.45320100    0.93282900
Ge    4.04506000   11.33413000   12.58724000     -0.093895   -0.67149100   -0.36221500
Ge    5.27956000   21.58694000    6.30297000     -0.793842   -0.28323000   -0.45940000
Ge    7.20809000   19.81448000   12.73908000     -0.269209   -0.59587700   -0.67315100
Ge   11.49029000    3.71337000    2.98934000     -0.683024   -0.07037400    1.00626100
Ge    7.86323000    3.87600000   12.15809000      0.735773   -0.02363800   -0.39872900
Ge   12.03854000    7.80251000    1.66452000     -2.464376   -0.12047000   -0.51611000
Ge   10.81035000    6.90384000   12.76373000     -1.556851    0.30175600   -0.31661100
Ge    8.14523000   13.43853000    1.38231000      0.283987    0.35858700    0.14407800
Ge    8.56930000   14.10323000   10.85113000     -0.023112    1.24835300   -0.58245400
Ge   11.72386000   21.64184000    0.95650000     -0.197818    0.09345800   -0.13764600
Ge   11.27217000   19.59623000   12.57795000     -0.471407    0.88060600   -0.53602100
Ge   21.84117000    0.32239000   16.72167000      1.239942   -0.13178800    1.60211900
Ge   12.69338000    2.37367000   10.52767000     -0.044835    0.79750600    0.37178300
Ge   16.82423000    8.74251000    1.18247000     -1.083235   -0.59121500    0.81662200
Ge   14.81547000    8.47631000    9.66120000      0.779220    0.57099200    2.12076600
Ge   17.96416000   12.08882000    2.61066000     -0.177714    0.56914900    0.32913600
Ge   16.92291000   15.83449000    8.70327000      0.188778    0.10584300   -0.39082700
Ge   16.70414000   20.26806000    3.03556000      0.459494    0.30310900   -0.77258900
Ge   14.32699000   19.22467000   10.34997000      0.612551   -0.00507400   -0.08615300
Ge   21.07804000    1.78483000    1.96953000      1.107531   -1.16012900   -0.17060100
Ge   21.58434000    1.14254000   10.51046000     -0.778683   -1.23909800   -0.59187600
Ge    0.98764000    8.55972000    1.60074000      0.133442   -0.07951400   -0.52229900
Ge   21.50355000    9.71079000   12.64990000      0.591722    0.59640700    0.24935000
Ge   20.27645000   12.53305000    1.58206000      0.946874    0.55685100    0.10366300
Ge    0.68214000   14.71599000   10.46659000      0.997537   -0.33107300    0.37622800
Ge    0.65857000   19.09868000    4.67878000      0.623482    0.03435700   -0.71424600
Ge   18.35152000   18.77309000   11.37446000     -0.877602    0.67299700   -0.75963000
Se   20.41115000    0.23141000    0.11567000      0.285870    0.12945600   -0.10849100
Se    1.21265000    2.11561000   10.54624000      0.337716    0.47728800    0.15773200
Se    2.55980000    9.95604000    3.10055000      0.369613    0.00276800   -0.46747200
Se   22.40029000    7.32489000   11.60104000     -0.229271    0.13493300   -0.07378100
Se   22.43272000   12.15264000    0.43393000      0.107863    0.13564600   -0.45352800
Se    1.49956000   12.75202000    9.07766000     -0.101203   -0.03104100    0.34536100
Se    2.46977000   17.39010000    5.27401000      0.383973    0.21839700    0.06765500
Se    1.90264000   17.00037000   11.48807000     -0.524253   -0.92420600   -0.60336800
Se    6.18429000    2.38751000    1.02363000     -0.720586    0.88241700    0.80128400
Se    6.65134000    2.13710000   10.58334000     -0.109217    0.35540900    0.21037100
Se    6.89237000    5.91816000    1.85472000      0.522580    0.51194200    0.62626600
Se    8.16122000    7.30183000   12.35237000      0.931132    0.03690900    0.10214000
Se    7.82044000   10.69100000    1.43331000     -0.292056   -0.27207300   -0.60643300
Se    6.42703000   12.99351000   13.21581000      0.234622    0.67479900   -0.21936800
Se    5.16027000   20.66005000    2.36404000      0.493645   -0.53894800   -0.30900100
Se    8.73669000   18.35852000   11.35335000      0.096282    1.60892000   -0.91182500
Se   13.61755000    1.27617000    0.53818000     -0.658164   -1.40775800   -1.75281100
Se   11.93551000    1.73990000   13.63257000     -0.044284   -0.18955300    0.08227200
Se   12.49797000    7.63192000   18.22093000      0.030749    0.24614300   -0.67862100
Se    9.66896000    8.98182000    9.83373000      0.518819   -0.15634200    0.11964400
Se   12.84562000   13.21940000    2.28361000      0.511390    0.39872700    0.04971800
Se   11.62107000   10.90606000    8.75167000      0.607232    0.10017000   -0.50024600
Se   13.97807000   16.75593000    2.41622000      0.036098    0.37067500   -0.68986300
Se   12.19503000   17.75549000   10.41533000     -0.372498    0.13798800   -0.13084900
Se   19.57129000    3.53112000    2.41814000     -1.389000    0.16071300   -0.02359700
Se   16.07417000    2.14849000   12.02185000     -0.029327   -0.35785800   -0.18788100
Se   15.43896000    7.96004000   18.00520000      1.082353    0.54690800   -0.31061000
Se   17.60685000    6.16370000   12.25355000     -0.035732    0.31467900    1.22457300
Se   18.74143000    9.64815000    0.19528000      0.406128    0.09118100    0.11586900
Se   17.66555000   13.91475000    6.47674000      0.491396   -0.22843700    0.75432900
Se   20.31626000   19.23803000    0.28565000      0.411116   -0.07109700   -0.41314600
Se   16.15830000   18.44209000    8.69522000     -0.161238   -0.56699400    0.93731900
Se    2.08737000    3.05094000    1.59061000     -0.377519   -0.44768300   -0.12364700
Se    5.51088000    6.80533000   10.62247000      0.354140    0.24979500    0.46073400
Se    4.86859000   10.47377000    1.78820000      0.235490    0.03921200    1.03160000
Se    4.97810000   12.09388000   10.27887000      0.187251   -0.26032200   -0.49925500
Se    2.62496000   15.26490000    2.09699000      0.031106    1.37239100    0.01063300
Se    2.31179000   13.30619000   12.89508000     -1.387044   -0.83956900    0.22645700
Se    3.01798000   21.42012000   18.75922000     -0.489183    0.06096800    0.16679200
Se    5.95589000   21.04922000   10.09383000      1.072595    0.60142000   -0.60093600
Se   12.57205000    5.29651000    1.59549000     -0.356153   -0.00120800   -0.96484400
Se    5.84141000    4.99467000    7.99626000      0.549441    0.67307300    0.62654500
Se   11.91730000   10.32293000    1.07349000     -0.241260    0.66978800    0.20483400
Se    7.52407000   11.92291000   10.96776000     -0.701070   -1.44893100   -0.04573700
Se    9.66218000   15.74617000    1.85608000      0.801158   -1.22769600    0.50218500
Se   12.89182000   12.72400000   12.67022000      0.365551    0.25784700    0.51501800
Se    9.24022000   21.25519000   18.23228000      1.002548    0.54619200   -0.27089300
Se    8.19475000   22.09837000   12.59736000      0.246814    0.39732600    0.18608600
Se   15.30782000    4.71066000    1.03883000      0.564221   -0.47204300   -0.99434100
Se   16.96863000    7.09517000    8.88451000     -0.674563    0.20880800   -0.27881900
Se   15.20606000   10.66803000   18.32274000      0.140891    0.03875800    0.17689400
Se   14.45807000   10.84094000   12.18082000     -0.087252    0.01564300    0.51829500
Se   17.75703000   14.76176000    2.93610000     -0.188914   -1.14661900   -0.10737000
Se   15.05153000   12.63158000   10.09662000     -0.053110   -0.09661500    0.69935100
Se   17.55790000   22.20669000    0.70810000     -0.051885   -0.58644400    0.64295300
Se   14.91767000   20.91008000    8.59020000     -0.182405    0.17842300   -0.83808500
Se   21.42192000    5.30603000    0.31499000     -0.234149   -0.01085200    0.07471900
Se   20.78268000    3.31813000   11.79264000      1.600868    0.65672600   -0.54585200
Se   20.29479000    6.79032000    2.42515000     -0.895593    1.15979400   -0.84174700
Se   20.62612000   10.93528000   10.53812000     -0.314770   -0.53738200   -0.18884600
Se   19.32659000   14.52759000    0.27533000      0.512497    0.66074900    0.01497100
Se   20.40183000   16.04021000   12.21299000      0.428558   -0.00016300    0.66184400
Se   20.93456000    0.14774000    3.99529000     -0.248842    0.01797300   -0.27691800
Se   17.06264000   20.85019000   11.42927000      0.198073   -0.16637000   -0.48569000
Se    2.88930000    3.83002000    8.35753000     -0.147270    0.63080700    0.05012500
Se   22.37563000    3.86044000   17.39491000      0.624770   -0.69246800   -0.72884500
Se    3.32211000    9.11047000    8.78234000      0.033187    0.12812200   -0.43212700
Se    1.02536000    9.69348000   16.98391000      0.341637   -0.42443100    0.01351600
Se    4.09489000   17.89036000    8.27971000      1.300309   -0.60985700    0.10951400
Se   22.54231000   17.99827000   15.43719000      0.311507   -0.93648000    0.22010200
Se    2.32297000   20.02388000   12.53208000     -0.616905    0.14680500    0.53011100
Se    0.92757000   20.82750000   17.67213000      0.574428    0.61599400   -0.21602800
Se    5.62742000    4.06259000    4.81754000     -0.054284   -0.32545800   -0.29763400
Se    5.65806000    4.84427000    0.19632000     -0.520933   -0.28667600   -0.79625900
Se    5.67915000    9.48725000    6.36019000     -0.151637   -0.45557300   -0.28502100
Se    4.73073000    7.93546000   16.55294000     -0.546652   -0.81747500   -1.56175100
Se    6.49871000   15.89659000   11.13952000      0.151976   -0.88949400   -1.15661500
Se    6.74782000   16.03189000   18.19265000     -0.425806    0.63016400   -0.32848000
Se   10.47830000   17.95123000    6.70096000      0.205914    0.51693700   -0.38016800
Se    6.68311000   20.64344000    0.23827000     -0.528695   -0.41214400    0.02490800
Se   10.13148000    2.21728000    9.84937000     -0.170402   -0.26711000    0.10372700
Se   12.92642000    3.40191000   16.81733000      1.004678   -0.84443300   -0.84540300
Se   14.08639000    7.92614000    7.49083000     -1.301035   -0.44565100   -2.15420100
Se   13.48515000   10.24492000   15.92210000     -0.682883    0.57975000    0.29006200
Se   11.94815000   14.86343000    7.84139000     -0.305184   -0.02463600    0.37003400
Se   14.41136000   15.57323000   17.55165000      0.143082    0.00125100   -0.46560300
Se   12.61419000    0.07081000    7.18072000     -0.057218    0.40614800    0.33285500
Se   15.32597000   19.85480000   17.21013000      0.056463   -0.02369900   -0.24573400
Se   13.88917000    4.66507000   10.07559000      0.264477   -1.02653100   -0.24278400
Se   20.63911000    1.66723000   15.22671000     -1.282279    0.97716400   -0.32305000
Se   18.74795000    9.33209000   10.60120000     -0.002645    0.28709000   -0.57241800
Se   17.38823000   10.38122000   15.24254000     -0.679172    1.03664200    0.66784900
Se   15.14218000   16.36314000    6.67513000     -0.118986    0.18650100    0.59897100
Se   19.27974000   13.60023000   15.59159000      0.737823   -0.80205600   -0.73246600
Se   18.54213000   20.60429000    8.10269000      0.371562   -0.26028700   -0.01728600
Se   18.73356000   18.58673000    2.82526000      0.086925    0.62736800   -0.71499600
Se    5.14391000    1.11944000    7.58986000      0.532833    0.61505600   -0.23701900
Se    4.21195000    2.83303000   16.83612000     -0.529420    0.28848500    0.94357100
Se    8.03101000    8.25245000    8.34976000     -1.262258   -0.27571100   -0.14836900
Se    4.70050000    9.13549000   18.52155000      0.057127    0.14397500    0.98485000
Se    6.31186000   16.92053000    5.83834000      0.773237   -0.65173100   -0.50880300
Se    5.30185000   12.48903000   17.68067000      0.610219   -0.21446100   -0.70841500
Se    2.15384000   20.34901000    9.45070000     -0.803334    0.90951100    0.85700300
Se    0.94953000   19.45627000    2.23126000     -0.502367    0.11057500    0.20583900
Se    8.65449000   21.81507000    8.17316000      0.067118    0.23626600    0.58821300
Se    9.74951000    3.19549000    1.38203000      0.285091    0.36212900   -0.26115500
Se   10.62566000    5.16305000    8.83789000     -0.002644    0.77001200   -0.32558800
Se    9.18793000    5.89120000   17.77164000     -0.512394   -0.49666400    0.37291800
Se    9.44382000   11.93170000    5.53502000      0.632997    0.55402400    1.18359900
Se    8.06318000   14.18181000   17.79621000      0.178852   -0.55910300   -0.13261900
Se   11.70282000   21.41190000   10.70769000     -0.109526    0.06521300    0.14616800
Se   11.74702000   13.94244000   17.82020000     -0.661291   -0.51963400   -0.07660300
Se   15.29155000    1.39465000    7.08443000     -0.094202    0.37180500    0.21686200
Se   16.51913000    2.75978000    0.12213000      0.209659    0.35534900    0.19787500
Se   15.50831000    5.26335000    7.06131000      0.465818    0.23458000    0.02092600
Se   15.61666000    7.50306000   15.16319000     -0.057178   -0.24847100    0.57560400
Se   15.80372000   10.83399000    8.88702000      0.492067   -1.68491800   -0.70301100
Se   14.23048000   13.17976000    0.28683000     -0.128853   -0.24047700   -0.35201800
Se   13.67699000   19.05537000    5.36725000      1.340386   -0.45437200    1.30846300
Se   17.49150000   17.55909000   18.87283000     -0.707971   -0.17097300    0.09963600
Se   20.94512000    1.11203000    7.91439000     -0.428478    0.50580600    0.55679300
Se    1.23736000    0.33313000   13.50402000     -0.809638    0.56120900   -0.15055600
Se   20.45859000    6.93471000    9.18120000      0.500334    0.31557800    0.64588800
Se   21.07768000    7.09695000   17.47668000     -0.353025    0.14585000   -0.11865900
Se   21.51385000   10.95268000    7.03041000      0.470246   -0.53777900    0.19971000
Se   20.71717000   11.01519000   17.46312000     -0.108083    1.58091100   -0.23674700
Se   19.28352000   16.94192000    7.78906000     -0.405748   -0.14737100    0.07407000
Se   19.33451000   17.22713000   15.95271000      1.618656    0.04295900   -0.40166900
Se    4.15954000    1.21158000   11.66940000     -0.258964   -0.17818900   -0.42236600
Se    2.53535000    1.77201000   15.22282000      0.181137   -0.89165600   -0.12583800
Se    0.22481000    7.10698000    7.69263000     -0.272342   -0.60437800    0.39969600
Se    0.78277000    9.91384000   14.38985000      0.644027   -0.45596900   -0.00278800
Se    3.40792000   14.84432000    5.98684000      0.787035    0.01674800    0.24632300
Se    1.96974000   13.63326000   16.93417000      0.391915    0.31382900   -0.07233900
Se    0.58178000   16.81532000    9.00910000      0.317292    0.38674900    0.16435000
Se    3.09548000   20.49206000   14.91074000     -1.741190   -0.50452300   -0.08190000
Se    6.38982000    0.71410000    3.23050000     -0.260969   -0.00703200    0.79899300
Se    8.02797000    0.12308000    1.69880000      0.514950   -1.11760200   -0.65933900
Se    9.49395000    8.95184000    6.42866000      1.769854    0.06487300    0.41226000
Se    4.41865000    5.58409000   14.33834000      0.267630    0.55165100    0.42970000
Se    5.91576000   12.10104000    4.38573000     -0.996364    0.97351600    0.47661700
Se   10.26462000   13.52142000   13.86695000     -0.902810    1.14994600   -0.63337000
Se    8.14563000   17.50365000    4.19925000     -0.322541    0.20368100    0.04568200
Se    7.87689000   16.30104000   14.69005000     -0.758116    0.32383800    0.97734700
Se   13.62954000    0.31706000    3.90325000     -0.294649    0.79082900   -0.02295800
Se   13.97965000   22.07975000   16.75474000     -0.245354    0.06201000   -0.17111600
Se   11.88108000    9.85226000    5.13110000      0.083621   -0.98786700    0.34998200
Se   11.58307000    6.18372000   15.04335000     -0.095989    1.04995200    0.34393500
Se   12.90213000   12.83227000    5.24497000     -0.123016    0.53844600    0.76452000
Se   14.15521000   14.42970000   14.41208000     -0.526042   -0.64466300   -0.80605600
Se   12.56763000   19.03054000    7.69353000     -0.602651   -0.09317200   -0.55893700
Se   12.31055000   18.83621000   18.89144000      0.654803   -0.60073900    1.05201700
Se   20.50571000    2.25702000    5.28121000     -0.153474   -0.37345000   -0.08184900
Se   17.17389000    0.67799000   16.84441000      0.376286   -0.37500300   -1.06489100
Se   19.29330000    4.99485000    6.67530000     -0.029421    0.20764000   -0.65767200
Se   18.64951000    5.50873000   15.60965000     -0.350296   -0.16150100    0.39631600
Se   19.32362000   11.48445000    4.73442000      0.247283    0.10901900   -0.54255000
Se   17.67726000   13.15063000   11.94600000     -0.420896    0.63258700    0.08466000
Se   17.91664000   17.38429000    4.61292000     -0.184521   -0.17164900    0.88194000
Se   17.61269000   19.91678000   14.36701000      0.100412   -0.42390100    1.04901000
Se    2.56925000    7.18511000    5.42292000      0.505888   -0.28685400   -0.04061300
Se    1.49953000    7.05807000   13.42369000     -0.312031    0.35265800    0.01657900
Se    2.50480000   10.78358000    5.38972000     -1.048804    0.45650600    0.33435700
Se    4.52733000   10.24653000   15.17561000     -0.321514   -0.09490600   -0.44741100
Se    6.66706000   14.00447000    7.53867000     -1.050372   -0.04895300    0.02368700
Se    3.31910000   17.49477000   17.69141000     -0.771164    2.35464600   -0.61424700
Se    1.40122000   19.46020000    7.25595000     -0.038387    0.21106200    0.43143500
Se    5.69878000   22.47537000   15.83308000      0.182403   -0.53244000   -0.77231000
Se    9.27144000    1.04189000    5.52024000      0.684585   -0.79439200   -0.70929100
Se    7.79392000    2.38241000   17.58612000     -0.986559   -0.09911700    1.16579500
Se   12.07146000   12.94089000    9.79763000      0.143234   -0.42202800   -0.30364700
Se    9.22830000   11.16069000   17.12367000      0.840181    0.37452100    0.58334100
Se    8.92693000   14.30475000    8.02813000      0.210687   -1.37064500    0.54176600
Se   11.07492000   17.56311000   14.15372000      0.489754   -0.59736100    0.22880900
Se   12.07236000   19.90035000    4.01863000     -1.119112    1.05052400   -0.41148700
Se    9.92787000   17.78068000   17.76591000     -0.932511   -0.54083600   -0.64632300
Se   11.89542000    3.30097000    6.66981000      0.394889    0.36833000    0.21639200
Se   17.45801000    3.06989000   15.82761000      0.210647    0.50490400    0.11622300
Se   16.46430000    8.82236000    5.80218000     -0.110817   -0.10254400   -0.06675300
Se   16.12504000    8.80656000   11.99330000      0.466613   -0.11755200    0.20998800
Se   16.60012000   11.48209000    5.77269000      0.159807    0.55550900   -0.06584600
Se   15.25467000   16.48994000   15.45167000     -0.064987    1.15001400    0.18982100
Se   16.67861000    2.99589000    4.51250000      0.253893   -2.34545500   -0.84834700
Se   18.70062000    3.75567000   12.47918000     -1.766294   -0.12775800    0.83599800
Se    2.08765000    2.48327000    6.37390000     -0.715622   -0.19955200   -0.85250600
Se    0.53593000    4.50998000   15.06858000     -0.091508    0.79321300    0.54979000
Se   19.05615000   12.94643000    8.33264000     -0.504594    0.13608100   -0.88731400
Se   20.93183000   12.21003000   13.81476000      0.204312    0.22831300   -0.75031800
Se   21.59344000   14.11599000    7.12978000     -0.364877   -0.25983300   -0.27985500
Se   20.23413000   18.77067000   12.67624000      0.771556   -1.13383300    1.38052800
Se   19.85237000   18.99481000    9.39174000      0.364340    0.67384500   -0.62292400
Se   20.99699000   20.91087000   15.72258000     -0.888132   -0.89740400    0.20180500
Se    3.16084000    1.00466000    4.29000000      1.119918   -0.06050000    1.22005400
Se    6.59731000    2.78578000   15.53016000      0.191435   -1.01079200    0.18767600
Se    1.76182000    6.43489000    0.23256000      0.311748    0.68757500    0.15831800
Se    5.05234000    8.68919000   12.71196000     -0.014372   -0.33804800   -0.31727000
Se    2.03364000   13.11068000    2.30516000     -0.493002   -1.34914000   -0.23790700
Se    5.10044000   14.69328000   14.69208000      0.066826   -0.18217600    0.65658400
Se    4.30066000   18.42551000    2.63094000      0.140446   -0.05062700   -0.89364100
Se    4.75733000   18.72324000   12.25197000     -0.266439   -1.04914900    0.66871000
Se   10.29405000    0.78255000    2.26634000      0.285925    0.08205400    0.29547100
Se   10.87589000    0.32035000   16.90489000     -0.651038   -0.40724800    0.25921900
Se    9.71372000    7.40541000    2.45167000     -0.016827    0.09951900    0.42573600
Se    7.85546000    8.78892000   15.82961000     -0.200715   -0.30073900   -0.03286800
Se   10.31411000   11.32479000    3.21161000      0.552240   -0.59713900   -0.51748400
Se   10.05118000   11.00145000   11.81854000      0.261815   -0.06414700    0.18929500
Se   10.08033000   19.07968000    2.09302000     -0.299575    0.28521400   -0.31307800
Se   15.04144000   18.58591000   12.81319000     -0.291674    0.08316700    0.50657200
Se   14.66133000    3.37251000    5.83064000     -0.418089   -1.05532500   -0.00117900
Se   14.02947000    1.43716000   15.29192000      0.036916    0.22444600   -0.04082600
Se   14.95037000    6.35787000    2.88766000      1.029119    0.05438300    1.03591400
Se   12.46166000    7.95813000   11.36477000      0.406018    0.06824200   -0.87332800
Se   16.14202000   10.47420000    2.99551000     -0.183054    0.26033200   -0.80595400
Se   17.10546000   14.10273000   16.29563000      0.250076    0.80779700    0.05682600
Se   15.24109000   15.74509000    4.29690000      0.596934   -0.44570100   -0.62730400
Se   14.74987000   22.15698000   12.97927000     -0.483834    0.57737800   -0.27892000
Se    1.37882000   21.46666000    5.88850000     -0.014837    0.10742000   -0.06571200
Se   19.43677000    0.16978000   13.00834000      0.575833    0.40785000   -0.12024100
Se   22.49134000    7.46759000    3.64808000      0.324943   -0.10514600    0.08215400
Se   19.59913000    8.76951000   13.69217000      0.217363   -0.87772300    0.74509300
Se    1.25578000   14.16269000    5.66701000     -0.020252   -1.70897600    0.56249700
Se   22.48421000   15.37695000   15.04980000     -0.138105    1.09018000    0.36509400
Se   21.37470000   17.60193000    5.09080000      0.674097    0.26442200   -0.35526100
Se   21.48342000   20.93334000   10.54401000     -0.016459    0.76448600   -0.15733700
Se    3.02245000    5.16080000    3.27235000     -0.782757   -1.12609100    0.59641900
Se    2.64116000    5.47260000   11.69925000     -0.496823   -1.57723500   -0.14168800
Se   21.17736000   10.35732000    3.43165000     -0.026693    0.89780400    0.02748000
Se    1.83204000   10.29137000   11.68242000     -0.248940    0.79701900    0.46781900
Se    0.25826000   16.05367000   18.77401000     -0.584716   -1.24920400    0.31915000
Se    3.73258000   15.04639000   12.67316000      0.415642    1.59384600   -0.40569400
Se    1.89806000    0.46477000    2.58652000     -0.883879   -0.19466700   -1.69219300
Se    5.37453000   20.17168000   14.93118000      0.569555    0.41221200    0.54329400
Se    9.55236000    4.77028000    4.94395000      0.970358   -0.07590200    0.14805900
Se    9.12014000    2.23064000   13.92347000     -0.148087    0.45061800    0.28767900
Se    7.18891000    6.55834000    4.97330000     -0.883063   -0.53253100    0.22641300
Se    8.25219000   12.48898000   14.68468000     -0.603235   -0.27826600    0.60738800
Se    5.53817000   14.71929000    2.14175000      0.322761   -0.40782300   -0.36678700
Se   10.94237000   15.36557000   11.07430000     -0.206807    0.25757200   -0.18194500
Se    7.37910000   20.42339000    6.20700000      0.328854   -0.15564400    0.04198400
Se    8.32233000   20.09554000   15.04977000     -0.375843   -0.37514400    0.38342500
Se   14.38249000    2.27152000    2.38238000      0.100589   -0.06519500    2.00282100
Se   10.65021000    4.58969000   11.99623000      0.478944    0.17452100   -0.18456400
Se   13.80786000    8.55847000    2.92753000      0.832966    0.29960600    1.28866600
Se   10.85926000   10.11474000   13.81502000     -0.086653   -0.13182700    0.38946700
Se    9.59701000   14.17094000    4.83961000     -0.969958    0.51956000   -0.32324000
Se   14.79936000   15.01880000   10.62435000     -0.205343    0.94484800    0.69275400
Se   14.28214000   19.94406000    1.71991000      0.643651    0.36161400    0.05438200
Se   13.37362000   20.25257000   13.92299000      0.731931   -0.14741500   -0.06900500
Se   18.00744000    6.04269000    0.83313000     -0.049575   -0.10645000   -0.24823700
Se   14.74377000    4.80493000   13.53161000     -0.624598   -0.47273600   -0.52592100
Se   18.47448000    8.00862000    3.70260000     -0.072030   -0.25116900    0.39351400
Se   21.19158000   13.53275000   11.59611000     -0.162994   -0.02270900    0.96954900
Se   21.17920000   14.57486000    3.23207000     -0.284058   -0.74452800    0.02332900
Se   16.92786000   16.82585000   11.76840000     -0.105071    0.55338900   -0.18109600
Se   17.00860000   20.82092000    5.38111000     -0.627790    0.49157200   -0.03747000
Se   16.73066000    1.36479000    9.68644000     -0.310541    0.08822600    1.06305400
