384
22.54784000 22.54784000 18.93360000
Ge    4.64767000    4.33113000   10.06634000      0.504353    0.42819700    0.63507800
Ge    4.02958000    6.71405000    1.65809000      0.732027    0.34041900   -0.30089200
Ge    3.85175000   11.16903000    7.26730000      0.915687   -0.49686200    0.07421900
Ge    6.87890000   10.57373000   18.09393000      0.017032   -0.25116100   -0.43647700
Ge    4.69773000   14.33706000    9.46331000      0.371496    0.87800100    0.17825900
Ge    8.23036000   17.62434000    1.11648000      0.137689    0.12840600    0.30692500
Ge    7.57587000   19.73905000    8.89117000     -0.195556   -0.41977500    0.31116400
Ge    5.28923000    0.03979000   18.15108000     -0.357205    0.20975700   -0.52609800
Ge    8.23558000    6.08025000    9.44129000     -0.209958    0.05375200    0.41980500
Ge   11.85883000    5.17814000   17.73883000     -0.428011    0.66310900    0.70319300
Ge   11.68617000    7.64046000    8.72889000     -0.690587   -0.35890300    0.65668400
Ge   10.31713000   12.22752000    0.37350000      0.160149   -0.46916500   -0.84965300
Ge    9.39514000   16.68455000    8.52593000      0.535741   -0.39810400    1.12495700
Ge   12.08630000   15.53923000    0.86343000     -0.672927    0.03970300    0.27890800
Ge    9.41465000   22.50379000   10.41488000      0.266450   -0.86318900    0.39078800
Ge   15.26636000   21.49869000    0.15651000     -0.807028    0.45590800   -1.22751400
Ge   18.32828000    5.28123000   10.13902000     -0.528880   -0.09450200    0.15118800
Ge   18.30874000    7.51879000   17.36668000      0.032650   -0.42795000   -0.05422900
Ge   18.66951000   14.97992000   10.77960000     -0.307456   -0.21569500   -1.02334000
Ge   17.54652000   11.65688000   18.30439000     -0.041237   -0.40520700   -0.40046500
Ge   13.69593000   16.09202000    8.87237000     -0.121091    0.85915100   -0.14521700
Ge   16.71196000   14.12892000   18.80096000      0.873380    0.99632400    0.76469500
Ge   16.09432000    3.98618000    9.30945000      0.386326    0.10772200   -0.18705100
Ge   18.65537000    3.82796000   18.45873000      0.553286   -0.08817800   -0.23018400
Ge    0.80029000    4.38910000    9.63639000      0.454436    0.41081500    0.23152400
Ge   21.70705000    4.75781000    2.90943000      0.095209   -0.30923300    0.72480200
Ge    0.26105000   10.21418000    9.10305000     -0.391807    0.28657900   -0.22427800
Ge   21.58487000    9.31846000   18.67454000      1.184117   -1.03487000    0.54454700
Ge   20.87628000   15.56343000    8.97880000      0.894055   -0.21224300    0.13553300
Ge    3.92264000   15.27339000   17.77581000     -0.126601   -0.69469200    0.37347600
Ge   19.03375000   22.43021000   10.53850000      0.051698   -0.50978500   -0.13170400
Ge   21.21986000   20.40686000    2.24829000      0.689668    1.18843000    1.30102000
Ge    3.07499000    6.92959000    7.74431000     -0.199758   -0.81366700    0.23404000
Ge    1.91269000    7.26107000   16.56279000      0.262652    0.24263700    0.78175900
Ge   20.51515000    8.87351000    4.96119000     -0.707142   -0.62754500    0.90815200
Ge    3.24727000   12.62421000   15.15339000      1.171076    0.32156500    1.45282700
Ge    4.55406000   18.57517000    5.10305000      2.383546    2.46095900   -0.79245500
Ge    0.80509000   18.28256000   18.21714000     -0.277943   -0.67512600   -0.48901900
Ge    4.41022000   19.26897000   10.04865000     -0.645377    1.80206500   -1.09053000
Ge    1.88757000    1.88445000   17.97318000     -0.417014    0.17697600    0.24081100
Ge    9.38310000    2.67324000    7.30806000      0.081324   -0.05478000   -0.26379300
Ge    7.20231000    6.39164000   16.42033000     -0.638828   -1.05438500    0.22937700
Ge    7.84602000   10.89411000    4.00217000     -0.566837    0.42228800   -0.26004300
Ge   10.27604000    7.85847000   16.69525000     -0.257820    0.65164100   -0.21166400
Ge    6.74473000   16.99045000    8.69716000     -0.587372   -0.29332200   -0.14656000
Ge   10.07425000   15.72376000   15.67582000      0.600974   -0.47342200    0.79802200
Ge   10.61475000   21.14176000    6.56680000      0.373234    0.59331600   -0.52034800
Ge   10.28292000   21.56934000   14.33656000     -0.226556   -0.18294800   -0.25599100
Ge   12.62651000    7.47925000    4.92791000     -0.225868    0.49618600    0.24963800
Ge   15.31504000    4.93029000   15.92467000      0.011989   -0.48107200    0.23433000
Ge   13.95393000   10.39302000    6.91770000     -0.341836    0.20413500    0.03024800
Ge   15.62193000   12.12444000   15.68703000     -0.961404   -0.12916300    0.19270100
Ge   13.04281000   15.54675000    5.52434000     -0.650247   -1.60721800    0.48732800
Ge   14.80774000   17.80313000   18.74367000      0.811999    1.40879700    1.01521100
Ge   14.37238000    0.19397000    9.89981000     -0.339460    1.22738800    0.39995000
Ge   17.13797000   22.38479000   14.05570000      0.276291   -0.46097100    0.26959200
Ge   20.58714000    4.40479000    8.79427000     -0.294425   -0.21135900   -0.37951900
Ge   20.51196000    6.27398000   13.56833000     -0.966828   -0.13716400    0.42731900
Ge   18.24540000   10.54144000    7.38124000      0.665769   -0.17373500    1.01028200
Ge   20.65050000   15.29152000   16.90741000      0.363910   -0.84721700   -0.01087900
Ge   19.84144000   15.65918000    5.50266000     -0.187946    0.09044000   -0.31632600
Ge   17.24560000   18.23475000   16.65288000      0.342862   -0.30226800   -0.44116000
Ge    0.78195000    0.84783000    7.67281000      0.248590   -0.64952600   -0.40301600
Ge   18.62717000   21.05700000   17.06922000      0.271726   -0.11118400   -0.32876100
Ge    6.90460000    3.28915000    6.76490000     -0.606523   -0.80780200    0.20005100
Ge    3.62972000    3.19646000   13.38754000     -0.316993    0.84463400    0.13030000
Ge    0.39814000    9.02381000    6.00135000      0.339112    0.51450300    0.34847300
Ge    2.64325000    7.99372000   11.03309000      0.672351   -0.32472200    0.07292300
Ge    0.85199000   15.71986000    3.90081000     -0.398747    0.62813200   -0.08952500
Ge    2.54566000   17.83148000   14.98849000     -0.245174    0.49645000    0.09259700
Ge    3.03105000    0.45722000    9.02077000     -0.055934   -0.04453200    0.37773700
Ge    7.59558000   18.20635000   16.68840000      0.178405   -0.59147500    0.16474800
Ge    7.94873000    3.77191000    3.08545000     -0.636251    0.31860100    0.24975600
Ge    9.99412000    2.57617000   16.51597000     -0.119811    0.20824500    0.19286600
Ge    8.30564000    8.56495000    4.24670000      0.963565   -1.52959500    0.84636200
Ge    7.27576000    9.96820000   13.22629000      0.243004   -0.95126600   -0.04008000
Ge    6.83958000   14.49152000    4.53837000     -0.048513   -0.22117400    0.21762100
Ge   12.09948000   12.50358000   15.11789000     -0.493164   -1.06562500    2.59799500
Ge    8.28532000   20.41415000    3.29029000      0.155242   -0.76995600    0.41745200
Ge    9.23831000   16.52720000   12.67116000      0.375762   -0.47409900   -0.19581000
Ge   11.75545000    1.74893000    4.77316000     -0.709580   -0.06726200    0.55594400
Ge   12.38150000    4.25284000   13.76453000      0.348083   -0.89842600    0.35344400
Ge   17.11927000    5.17537000    4.73232000      0.279280    0.12441600    0.63703900
Ge   13.66924000    8.68635000   14.18709000     -0.214168   -0.50001400   -1.00568300
Ge   14.91786000   13.13042000    3.91201000      0.600205   -0.04988200   -0.48388200
Ge   13.12339000   16.84311000   12.63447000      1.135218   -1.85796200   -0.67949700
Ge   11.91974000   17.51183000    4.05265000     -0.593996    0.36192800   -0.30404500
Ge   11.11106000   19.81131000   16.84456000     -0.378006   -0.10646400    0.04763800
Ge   22.26891000    3.83763000    5.47260000      0.635385    1.07928400    0.41905800
Ge   22.27050000    2.70090000   13.77793000      1.347638   -0.89634300   -0.84828200
Ge   18.64083000    7.56655000    7.10750000      1.259841    0.13811900   -0.80038500
Ge   17.88313000   10.92116000   12.74839000      0.180013   -1.39072100    0.13716500
Ge   21.06494000   16.66734000    1.60585000     -0.358906   -0.25141800   -0.22476500
Ge   18.31463000   15.89489000   13.82525000      0.400473   -0.89685300    0.57181200
Ge   19.20943000   20.02091000    5.67237000      0.468502   -0.53531000   -0.09031700
Ge   21.90713000   20.76601000   13.04915000      0.325720    0.82019900   -0.34459700
Ge    4.31007000    2.74427000    2.87763000      0.155928    0.45275700   -0.16219800
Ge    6.10374000    1.41529000   13.06932000      1.188032   -0.33030100    0.98610300
Ge    4.88161000    7.67723000    4.40499000      0.293333    0.98942200    0.42215400
Ge    6.69366000    4.91190000   14.35522000      0.074234    0.92069100   -0.24800900
Ge    4.31538000   12.55227000    1.00163000     -0.330147    0.66639500    0.57815900
Ge    4.07751000   11.20652000   12.57306000      0.559156   -0.27494600    0.34818400
Ge    5.34049000   21.53567000    6.44166000     -3.756704    1.10043100   -0.20572200
Ge    7.07623000   19.79014000   12.68899000      0.131121    0.00660300   -0.01306800
Ge   11.50614000    3.67746000    2.99405000     -1.015842   -0.31008000    0.74746000
Ge    7.93251000    3.90277000   12.19898000      0.395000    0.49694800    0.20993700
Ge   11.84870000    7.92999000    1.55393000     -0.577266   -0.63903800    0.43404900
Ge   10.83735000    6.95813000   12.68918000     -1.824878   -0.07725700    0.46434600
Ge    8.21051000   13.47692000    1.37857000     -0.174764    0.71069900    0.06261100
Ge    8.66971000   14.00037000   10.58000000     -0.027613    1.01271800   -0.04603600
Ge   11.76564000   21.66827000    1.07454000     -0.180880   -0.12966300   -0.15030600
Ge   11.31833000   19.61178000   12.60555000     -0.418903    1.03196300   -0.22620800
Ge   21.85243000    0.40977000   16.69492000      1.280482    0.00667100    1.65276000
Ge   12.70463000    2.40397000   10.53846000      0.005847    0.05806600    0.37380800
Ge   16.87470000    8.53081000    1.33961000     -0.905966   -0.53298400    0.43152600
Ge   14.86768000    8.41300000    9.83276000      0.415891    0.25999600    0.69693000
Ge   17.87027000   12.03738000    2.58467000      0.704231    1.23892500   -0.46855400
Ge   16.95888000   15.94554000    8.58263000      0.016874   -0.40902500    0.33871300
Ge   16.64580000   20.36934000    3.06123000      0.620082   -0.27494100   -1.71595200
Ge   14.22886000   19.12989000   10.15666000     -0.255299    0.60567500    1.02950800
Ge   21.27308000    1.86041000    1.90841000     -0.145906   -0.40593500    0.50263200
Ge   21.56250000    1.14944000   10.51110000     -1.121771   -1.35270500   -0.67699600
Ge    1.02207000    8.74692000    1.68076000     -0.637518   -0.64212400   -1.53315100
Ge   21.55870000    9.41857000   12.73428000      0.967690    1.41324600   -0.50889000
Ge   20.40554000   12.53621000    1.68162000     -0.337271    0.67186800    0.22895300
Ge    0.81083000   14.58215000   10.35892000     -0.266373    1.86048000    1.07227400
Ge    0.96440000   19.10830000    4.60735000     -0.814172   -0.01400000    0.86951800
Ge   18.44791000   18.81259000   11.30091000     -0.744170    0.71493700    0.06076200
Se   20.49598000    0.21760000    0.27808000      0.278571    0.06709700   -0.60845000
Se    1.17061000    2.04638000   10.41252000      1.372657    0.11334400    0.33031900
Se    2.59565000    9.91950000    2.99390000      0.738023    0.67048600    0.47144200
Se   22.46354000    7.31375000   11.65200000     -0.706202   -0.14759300   -0.86714900
Se   22.30760000   12.23182000    0.25390000      0.637395   -0.08708500   -0.64553700
Se    1.46460000   12.82751000    9.17010000      0.683871   -1.63493100   -0.99512200
Se    2.67670000   17.42302000    5.29498000     -2.583100   -2.16783600    0.49760000
Se    1.83871000   17.00763000   11.46991000     -0.397989   -0.71241200   -0.69724600
Se    6.10923000    2.67714000    0.89965000     -0.423847   -0.58378900    0.71221900
Se    6.54379000    2.28087000   10.74609000      0.279417    0.67520600   -0.44554500
Se    6.75720000    5.92197000    1.78546000      0.866988    0.65959900    1.13362800
Se    8.07271000    7.15342000   12.35536000      1.085306    0.23617400   -0.04119700
Se    7.86102000   10.72085000    1.35806000     -0.319421   -0.40641800   -0.28896200
Se    6.48965000   12.89688000   13.28802000     -0.299475    0.91344700   -0.18667500
Se    5.36894000   20.54014000    2.27019000      0.148103    0.39135900    0.43073600
Se    8.63280000   18.43352000   11.24061000      0.458771    0.82749400   -0.29000300
Se   13.36993000    1.28902000    0.50282000      0.065117   -0.57944400   -0.28576100
Se   11.99067000    1.64590000   13.59018000     -0.428991    0.69037200   -0.17720100
Se   12.55811000    7.64498000   18.16337000     -0.432396   -0.60975200   -0.39365900
Se    9.71709000    9.07500000    9.84100000     -0.527730   -0.29452200   -0.05325300
Se   12.95174000   13.15360000    2.28582000     -0.257961    0.22317200    0.20530900
Se   11.58996000   10.90157000    8.76843000      0.616832    0.48361800   -0.40780700
Se   13.98844000   16.77369000    2.46265000     -0.239212    0.48662800   -0.83089400
Se   12.13269000   17.67948000   10.42154000     -0.311356    0.01208100   -0.22976800
Se   19.43531000    3.63553000    2.47724000     -0.371521   -0.78491900   -0.21930900
Se   16.08323000    2.07059000   12.02539000      0.130012   -0.15234700    0.15879600
Se   15.42590000    8.00366000   18.01808000      1.277775    0.56601700   -0.15863300
Se   17.50955000    6.12432000   12.33818000      0.338104    0.17512600   -0.25187800
Se   18.65775000    9.66879000    0.23595000      0.526279   -0.40132400    0.45605900
Se   17.73233000   14.04882000    6.61972000      0.249971   -0.39291900    0.46686700
Se   20.34098000   19.25668000    0.49823000     -0.326758   -0.67244300   -1.87898500
Se   15.98665000   18.48687000    8.76356000      1.078572   -0.85482300   -0.25623500
Se    1.92779000    2.95469000    1.56024000      0.104321   -0.89039600    0.27793600
Se    5.49962000    6.90297000   10.57969000      0.056732    0.30589500    0.49963600
Se    4.94548000   10.27793000    1.95541000      0.314066    0.18307600    0.35484700
Se    4.94736000   12.02210000   10.33006000      0.248895   -0.33542900   -0.59048500
Se    2.60545000   15.35557000    1.99738000      0.379834    0.04568500   -0.38860800
Se    2.31027000   13.27373000   13.02096000     -1.380859   -0.35671000   -0.94226200
Se    2.92933000   21.26284000   18.67277000      1.572934    0.79392600    1.06763800
Se    5.98048000   21.21127000   10.08242000     -0.494969   -0.81476700   -0.21347100
Se   12.51429000    5.30642000    1.66032000      0.073028    0.48617600   -0.98002800
Se    6.08048000    5.19517000    8.08671000      0.239994    0.10829600   -0.04770900
Se   11.91088000   10.22258000    1.02485000     -0.214378    1.85348200   -0.09145000
Se    7.42926000   11.85588000   10.87184000     -0.538505   -1.24157400    0.09852900
Se    9.63567000   15.76133000    2.03214000      0.721908   -0.63758500   -0.48376300
Se   12.91249000   12.79813000   13.03072000      1.230517    0.07053700   -3.23416900
Se    9.41874000   21.42737000   18.25913000      0.000144   -1.00262600   -0.02909800
Se    8.15310000   22.13258000   12.57956000      0.353482    0.25170000    0.14306400
Se   15.38354000    4.66727000    0.90973000      0.256211   -0.22000700   -0.21678300
Se   17.06016000    7.07829000    8.81467000     -1.170541   -0.11758300    0.60863800
Se   15.15333000   10.73823000   18.46370000     -0.056880   -0.07483400    0.05895400
Se   14.56533000   10.98934000   12.09437000      0.078237   -0.15028400    0.46814700
Se   17.73177000   14.77151000    2.97830000     -0.178388   -0.97365800   -0.32437700
Se   15.13390000   12.62242000   10.07889000     -0.044899   -0.57405900    0.35910600
Se   17.33895000   22.21337000    0.75115000      0.910687   -0.28613200    0.80822300
Se   14.91880000   20.96622000    8.45856000     -0.283070   -0.03320100   -1.20288300
Se   21.48773000    5.35360000    0.42368000      0.086070   -0.99126000    0.25775300
Se   20.85985000    3.13627000   11.82134000     -0.313382    1.26175200    0.05013800
Se   20.20072000    6.82200000    2.40495000      0.174421    0.35996400   -0.76345900
Se   20.66266000   10.91192000   10.59995000     -0.271631   -1.40485400    0.01472600
Se   19.43138000   14.45906000    0.30378000     -0.190925    0.88051200   -0.21736700
Se   20.50121000   15.98279000   12.21201000      0.147035    0.87576300    0.87573500
Se   20.86469000    0.29889000    4.08294000      0.107621   -0.12025600   -0.57988200
Se   16.99895000   20.79354000   11.25412000      0.716172   -0.08072900    0.21622000
Se    2.90796000    3.90535000    8.22864000     -0.426209    0.46602700    0.07803700
Se   22.24756000    3.80229000   17.40477000      0.603333   -0.31331800   -0.57738700
Se    3.17562000    9.09061000    8.75225000      0.307590    1.35923500   -0.16400700
Se    1.09950000    9.67982000   17.00070000      0.119416   -0.56565300    0.06998700
Se    4.22658000   17.79563000    8.29683000      0.859889   -0.89031400   -0.52564300
Se   22.52736000   18.05512000   15.43016000      0.540627   -1.07725200    0.36278900
Se    2.15976000   19.93437000   12.51135000     -0.476448    0.12475200    0.87121600
Se    1.03024000   20.75705000   17.63353000     -1.231791    0.33906700   -1.01722900
Se    5.59249000    3.96073000    4.85594000     -0.098664   -0.00799700   -0.12449400
Se    5.68420000    4.84192000    0.05784000     -0.750448    0.37504500   -1.35918000
Se    5.77108000    9.27513000    6.43959000     -0.800180   -0.00297700   -0.69097700
Se    4.56213000    7.96704000   16.47340000     -0.309237   -0.67715800   -0.69205900
Se    6.51273000   15.94648000   11.03620000      0.073461   -1.21705300   -0.60617800
Se    6.65389000   16.08010000   18.20946000     -0.256209    0.13508500   -0.04378000
Se   10.52107000   17.99492000    6.77525000     -0.898107    0.13670700   -1.04336900
Se    6.72013000   20.67029000    0.28483000     -0.591487   -1.24437100   -1.27268200
Se   10.01044000    2.13701000    9.82555000      0.332775    0.96424700    0.08196400
Se   12.99118000    3.18679000   16.70350000      0.340763    0.29908900   -0.31373700
Se   13.96843000    7.83366000    7.42961000     -0.696091    0.00002200   -1.11492800
Se   13.50641000   10.38380000   15.80172000     -0.392063    0.13316000    0.81256700
Se   11.80628000   14.85015000    7.94692000      0.320592   -0.20459600   -0.76357400
Se   14.37416000   15.78719000   17.56681000     -0.480064   -1.29328400    0.86419500
Se   12.60551000    0.14320000    7.03398000     -0.497666   -0.11666700    0.26447100
Se   15.35058000   19.78260000   17.14849000     -0.397392   -0.15512000   -0.10900600
Se   13.95913000    4.66057000   10.11254000     -0.475545   -0.35364600    0.12289900
Se   20.70239000    1.87688000   15.21226000     -2.117006    0.07387300    0.51150400
Se   18.65171000    9.36493000   10.52087000      0.474330    0.91288000   -0.04038800
Se   17.20202000   10.39955000   15.29695000      0.640172    0.06809800    0.24549000
Se   15.09048000   16.38329000    6.66871000     -0.327079    0.02284800    0.48735200
Se   19.18102000   13.54543000   15.49470000      1.563078   -0.30698900   -0.37941200
Se   18.57395000   20.76130000    8.22458000      0.323051   -0.71260600   -0.37994500
Se   18.94074000   18.59530000    2.71407000     -0.883853    0.24071600    0.50278000
Se    5.23861000    1.15572000    7.61019000      0.514385    0.57973500   -0.48107900
Se    4.05216000    2.65993000   16.84356000      0.452609    0.78299700    1.63415500
Se    7.88072000    8.30596000    8.24783000      0.015461    0.05199900    0.54856000
Se    4.70729000    9.28632000   18.53909000     -0.225740   -0.39500800    0.32365200
Se    6.32229000   17.01247000    5.73279000      0.821751   -0.40431900   -0.55467200
Se    5.44818000   12.54801000   17.76536000      0.096802    0.22706400   -0.32453200
Se    2.04516000   20.39358000    9.45447000      0.579689    0.16151600    1.00647200
Se    1.09564000   19.35398000    2.35081000     -0.270487    0.35673100   -1.58565600
Se    8.58475000   21.86074000    8.17062000      0.848792    0.73102700    1.13257200
Se    9.71514000    3.30452000    1.35509000      0.361629    0.13264100   -0.24954100
Se   10.49960000    5.14744000    8.82669000      0.057910    0.66512900   -0.38282900
Se    9.17715000    5.98630000   17.84712000      0.241579   -0.45018500    0.51216900
Se    9.56303000   12.01900000    5.52096000     -0.103993   -0.49597300    1.62376000
Se    8.03281000   14.29375000   17.67853000      0.064315   -0.34234000    0.60211200
Se   11.54086000   21.49017000   10.84447000      0.695297    0.04790500   -0.07642100
Se   11.81359000   13.89142000   17.82732000     -0.901894   -0.44204400   -0.08859200
Se   15.33367000    1.32153000    7.14431000     -0.393113    0.29309400    0.10899600
Se   16.58188000    2.69151000    0.29084000     -0.299702    0.24379300    0.16901200
Se   15.50273000    5.32867000    7.05738000      0.386645   -0.73144600   -0.06126800
Se   15.55764000    7.37051000   15.27727000      0.228088    0.09911700    0.82159700
Se   15.87104000   10.64813000    8.86518000      0.138681   -1.10290500   -0.26519100
Se   14.15949000   13.21380000    0.22343000      0.148511   -0.45282200   -0.57970000
Se   13.62848000   19.05587000    5.31127000      1.306879   -0.30542100    0.96835700
Se   17.61489000   17.66633000    0.01210000     -0.825281   -0.35926500    0.08454700
Se   20.98046000    1.33157000    7.94849000     -0.193248    0.32469100    0.23781800
Se    1.17370000    0.34432000   13.70027000     -1.044779    0.33957300   -0.83558200
Se   20.51728000    6.83732000    9.22917000      0.549606    0.81536100    0.20582900
Se   21.16723000    6.94175000   17.72583000     -0.398879    1.42044100   -1.61866900
Se   21.40599000   11.02976000    7.08330000      0.526402   -0.64572400    0.28088300
Se   20.60313000   11.08240000   17.49441000     -0.007838    1.79269100   -0.72051600
Se   19.18841000   16.92043000    7.80659000     -0.185971    0.59144600   -0.41095500
Se   19.39648000   17.11173000   15.93017000      0.114887    0.85378600   -0.41680800
Se    4.26007000    1.12479000   11.66365000     -1.876549   -0.76022800   -1.06012000
Se    2.40442000    1.90065000   15.32732000      0.203008   -0.46915100   -0.82688600
Se    0.22791000    7.16151000    7.84639000      0.149361   -0.03247100   -0.07997500
Se    0.83618000    9.90435000   14.49674000      0.269967   -0.15510400   -0.47399300
Se    3.53178000   14.84376000    5.75474000     -0.030521   -0.57512100    0.34794100
Se    2.05586000   13.69690000   17.00657000      0.107298    0.15618200   -0.04044700
Se    0.65723000   16.88705000    8.83588000     -0.053293   -0.24830900    0.65902100
Se    3.18845000   20.64468000   14.87374000     -1.070223   -0.92553900   -0.34005200
Se    6.42135000    0.76899000    3.32157000     -0.183412    0.06576600    0.73031400
Se    7.98158000   22.51939000    1.75110000     -0.595086    0.04354600   -0.79199900
Se    9.63284000    9.00481000    6.51523000      0.487288   -0.43950700   -0.68475300
Se    4.38958000    5.64044000   14.36321000      0.011654   -0.51844800   -0.00565300
Se    5.89251000   12.08192000    4.35458000     -0.550228    0.64841800    0.59612600
Se   10.14535000   13.47775000   13.88581000     -0.459321    1.19155600   -0.61845300
Se    8.29407000   17.52756000    4.21039000     -0.951085    0.30015200    0.03563700
Se    7.86154000   16.28674000   14.80402000     -0.667140    0.60521500    0.17904200
Se   13.60551000    0.44829000    4.04211000      0.378716    0.33560200   -0.45595700
Se   13.95176000   22.05631000   16.80920000      0.048046    0.17906300   -0.33748600
Se   11.83078000    9.94650000    5.27998000      0.403350   -1.16122700    0.27429600
Se   11.66011000    6.27772000   15.15159000      0.173296    0.40903200   -0.54378100
Se   13.00481000   12.70844000    5.28218000     -0.416047    1.11334100    0.71461800
Se   14.13244000   14.49314000   14.41669000     -0.051693   -0.17230500   -0.67379000
Se   12.40353000   19.15958000    7.53123000      0.639164    0.06006700    0.76881500
Se   12.37232000   18.84160000   18.87784000      0.296686   -0.11355100    0.29562000
Se   20.42551000    2.38222000    5.16141000     -0.771313   -0.70103500    0.36595700
Se   17.09516000    0.64609000   16.75255000      0.483040   -0.36225000   -0.79847800
Se   19.32441000    5.01205000    6.56932000     -0.040744    0.07040400   -0.36119100
Se   18.69919000    5.52592000   15.58484000      0.009727    0.01925500    0.40887000
Se   19.30079000   11.59613000    4.56542000      0.264447   -0.18333900    0.39239400
Se   17.62802000   13.18640000   12.02415000     -0.508931    1.19401200    0.34193900
Se   17.81717000   17.50004000    4.75909000      0.837113    0.59983900    0.02167700
Se   17.54665000   19.81911000   14.42108000      0.173928    0.45211200    0.76379000
Se    2.62346000    7.26847000    5.40497000     -0.306439   -0.34578700    0.14294900
Se    1.49657000    7.04940000   13.38436000      0.374477   -0.03081600    0.70212200
Se    2.28036000   10.89926000    5.44875000     -0.654652   -0.03973800   -0.00892200
Se    4.42957000   10.20716000   15.29686000     -0.224422   -0.14190700   -0.56855600
Se    6.57851000   14.05810000    7.69738000      0.000762    0.33811100    0.02176700
Se    3.17794000   17.62966000   17.59675000      0.279350    0.45524500   -0.33018500
Se    1.47860000   19.41872000    7.37200000     -0.240097    0.59634300    0.14569400
Se    5.93901000   22.46605000   15.61635000     -0.067010   -0.60035500   -0.02358300
Se    9.43929000    0.96362000    5.41373000      0.106629   -0.36087400   -0.26249500
Se    7.61748000    2.22662000   17.65440000      0.477091    0.01744900   -0.18136500
Se   12.15917000   12.91384000    9.86838000      0.114128   -0.89313600   -0.57140700
Se    9.11579000   11.09086000   17.03744000      1.174824    0.30143800    0.96352100
Se    9.16717000   14.11768000    8.04121000     -1.346950   -0.03718600    0.20725600
Se   11.31856000   17.43877000   14.04407000     -1.059196    0.22749800    1.31620600
Se   12.07360000   20.11287000    4.02674000     -1.006656    0.48314900   -0.35661300
Se    9.98080000   17.73190000   17.75459000     -0.642896   -0.55074000   -0.47893700
Se   11.68309000    3.30703000    6.70976000      0.960224    0.60338800   -0.04071000
Se   17.42525000    3.02810000   15.85922000      0.315846    0.73946900    0.20777100
Se   16.58420000    8.87971000    5.63713000     -0.126750   -0.17564200    0.15194200
Se   16.09918000    8.57480000   12.08828000      0.114108    0.30325600    0.05307100
Se   16.63893000   11.49294000    5.78028000      0.036108    0.83764300   -0.10659500
Se   15.11057000   16.46761000   15.57447000      0.838293    2.14474100   -1.40115000
Se   16.72398000    2.78660000    4.57720000     -0.348509   -0.10230600   -0.26986100
Se   18.53620000    3.91734000   12.72940000      0.345210   -0.42596500   -0.08751800
Se    2.05610000    2.49555000    6.24866000     -0.598162    0.04558600   -0.59460000
Se    0.45599000    4.55865000   15.05372000     -0.065139    0.82703900    0.76498400
Se   19.08729000   13.02551000    8.44828000     -0.720124   -0.11966100   -0.85546900
Se   21.00354000   12.37799000   13.61428000      0.202648    0.15770400    0.34391700
Se   21.53879000   14.25156000    6.97768000      0.124202   -0.06413000   -0.04547100
Se   20.25008000   18.90120000   12.78772000      0.179679   -1.10933000    0.82212000
Se   19.91645000   19.08557000    9.35819000      0.352638    0.75718200   -0.80264000
Se   21.05479000   20.96737000   15.80065000     -1.283021   -1.26837500   -0.17979100
Se    3.29103000    0.87650000    4.41710000     -0.425196   -0.13241500   -0.73924300
Se    6.55219000    2.67043000   15.43547000      0.561796   -0.26368100    0.19220200
Se    1.95570000    6.46152000    0.23392000     -0.219866    0.58446700   -0.27973400
Se    4.98430000    8.52098000   12.62112000      0.319630   -0.09271000   -0.34142800
Se    1.74313000   13.24087000    2.41311000      0.012235   -0.51936200   -0.50076800
Se    5.22483000   14.56624000   14.68906000     -0.732138   -0.62469100    0.35100100
Se    4.37985000   18.45366000    2.55098000      0.114524   -0.68506600    0.05409300
Se    4.70039000   18.69106000   12.20037000      0.140009   -1.20502700    1.46595000
Se   10.13763000    0.64278000    2.18808000      1.994351    0.91573700    1.18815800
Se   10.90978000    0.27437000   17.15107000      0.310960    0.87156700   -0.96039100
Se    9.63362000    7.32813000    2.42374000     -0.259783    0.05744700    0.32560500
Se    7.77602000    8.56144000   15.89297000      0.101548    1.29460700   -0.62725100
Se   10.20096000   11.12836000    3.34927000      0.852040   -0.29443600   -1.10279200
Se   10.00258000   10.92345000   11.86874000      0.125875   -0.37280600    0.43507900
Se   10.11145000   19.06969000    1.96154000     -0.830991    0.90006400    0.45137800
Se   15.11582000   18.44439000   12.72870000     -0.448848    0.70619400    0.47234100
Se   14.48164000    3.31925000    5.91630000      0.662587   -0.58659500   -0.09262300
Se   14.23558000    1.43009000   15.39946000     -0.441880    0.16256200    0.01493800
Se   14.96523000    6.50123000    3.03746000      1.365640   -1.88163500    0.36581300
Se   12.41552000    8.06694000   11.30341000      0.704610    0.00019900   -0.96345700
Se   16.14531000   10.50426000    3.02132000     -1.003653   -0.04253200   -0.80524800
Se   17.11672000   14.15558000   16.30099000     -0.464683    0.60428700    0.24475800
Se   15.31979000   15.77210000    4.18649000      0.669450   -0.46439600   -0.28181600
Se   14.76138000   22.22245000   13.02584000     -0.566046   -0.02766200   -0.38847900
Se    1.22273000   21.48580000    5.81126000      0.021331   -0.54433600    0.44084800
Se   19.55076000    0.02228000   12.94387000      0.144045    0.18291600    0.62557500
Se    0.01521000    7.54698000    3.54637000     -0.078263   -0.57203900    0.28990700
Se   19.65300000    8.77776000   13.80051000     -0.661621   -0.86291900    0.89603900
Se    1.26085000   14.03710000    5.64547000      0.882639   -0.11930700    0.21640700
Se   22.47483000   15.44533000   15.01216000     -0.224143    1.21923000    0.28586500
Se   21.34325000   17.87614000    4.98528000      0.924804   -0.07902600   -0.18286400
Se   21.52648000   21.03325000   10.34713000     -0.077585    0.38954400    0.42359300
Se    3.11817000    5.13436000    3.23658000     -0.215693   -0.56910600    0.22416300
Se    2.51145000    5.28452000   11.77185000     -0.229197   -1.28776500   -0.21642200
Se   21.03536000   10.38984000    3.25188000      0.618140    1.02536800   -0.56840100
Se    2.07293000   10.25280000   11.67961000     -1.735275    0.86199800   -0.01801700
Se    0.36039000   15.90685000   18.90908000     -0.775171   -0.00083900   -0.03680100
Se    3.56767000   15.14935000   12.63142000      0.372430    1.24741800   -0.22771300
Se    1.87960000    0.49408000    2.51884000      0.270798    0.38852500   -0.13436700
Se    5.49761000   20.10817000   15.13316000     -0.048707    0.34163200    0.13988200
Se    9.52748000    4.74302000    4.95524000      0.348952   -0.32614000   -0.27750600
Se    9.23301000    2.41013000   13.99256000      0.196772   -0.41629100    0.06303200
Se    7.09689000    6.50777000    5.00093000      0.035362    0.20267100   -0.30415200
Se    8.30627000   12.46754000   14.91899000     -0.770814   -0.45699200    0.26450500
Se    5.56919000   14.64458000    2.36556000      0.134615   -0.15986200   -0.75749500
Se   10.97221000   15.21054000   10.96917000     -0.565974    0.65979400    0.41881900
Se    7.29909000   20.63859000    6.41288000      2.592848   -1.98321100   -1.69404000
Se    8.49478000   19.94633000   15.07936000      0.502064    0.37054300   -0.37828100
Se   14.31012000    2.30714000    2.38602000     -0.145430   -0.25838300    0.81175800
Se   10.61926000    4.59370000   11.98055000      1.004836    0.26491500   -0.25118400
Se   13.98920000    8.50034000    2.94983000     -1.224743    1.35002400    0.16192800
Se   10.89883000    9.97562000   13.87025000     -0.066473    0.18717500    0.11854400
Se    9.48095000   14.13973000    4.75662000     -0.582467    1.59846700   -0.55212800
Se   14.64856000   14.93134000   10.68883000      0.107754    0.88650900    1.01031500
Se   14.28218000   20.06553000    1.70072000      0.063335   -0.44667700    0.86194900
Se   13.46672000   20.12395000   14.00529000      0.371816    0.29534900   -0.47957700
Se   18.13779000    6.12061000    0.65283000     -0.402189    0.10640000   -0.06691000
Se   14.86975000    4.72158000   13.51020000     -0.699061   -0.25580400   -0.33324500
Se   18.41684000    7.88148000    3.80614000     -0.296795    0.09334400    0.23421700
Se   21.13699000   13.65243000   11.63467000      0.040975   -0.50759100    0.06327200
Se   21.21791000   14.62376000    3.29123000     -0.405317   -0.44882300   -0.17800400
Se   16.91599000   16.90943000   11.72576000      0.408768    0.00370600   -0.46781700
Se   16.99381000   20.87208000    5.27769000     -0.906977    1.02976300    0.82260100
Se   16.80485000    1.42608000    9.70146000     -0.463396    0.05831800    0.75251500
