384
22.54784000 22.54784000 18.93360000
Ge    4.65556000    4.60125000    9.94042000     -0.012353   -0.14099500    0.49662700
Ge    4.07789000    6.97230000    1.50783000      1.040232   -0.22559800    0.91012600
Ge    3.88024000   11.10398000    7.14958000      0.429237   -0.24027100    0.07300900
Ge    6.81144000   10.62447000   18.01401000      0.157353   -0.98238300   -0.08098600
Ge    4.62276000   14.36730000    9.65047000      0.122639    0.15279900    0.26209300
Ge    8.33529000   17.86411000    1.06596000     -0.537887   -1.09610900    0.19173400
Ge    7.26804000   19.81375000    8.84439000      1.327639   -0.66565400   -0.80648400
Ge    5.38472000   22.54521000   17.99802000     -0.474173    0.54431700   -0.53634500
Ge    8.14481000    6.25613000    9.51560000      1.498368    0.86977300    0.78689000
Ge   11.73834000    5.21689000   17.85611000     -0.026046    0.03901200    0.38096400
Ge   11.54037000    7.71514000    8.78166000     -0.321091   -0.39028400   -0.05907200
Ge   10.28785000   12.21914000    0.34447000     -0.203348   -0.26223200   -0.44196900
Ge    9.33939000   16.77441000    8.66716000      1.270225    0.00148600    0.41270200
Ge   11.94760000   15.49480000    0.72218000     -0.189215    0.48095600    0.48984200
Ge    9.42935000   22.46044000   10.39159000     -0.254983    0.47514600    1.46089600
Ge   15.13429000   21.38416000   18.83167000      0.686129    0.31874500    0.44220500
Ge   18.33968000    5.03775000   10.12833000     -0.422140    0.70728100    0.54304500
Ge   18.36926000    7.80383000   17.19604000      0.027350   -0.16073800    0.46007100
Ge   18.69123000   14.82889000   10.71038000     -0.006893    0.45223700   -0.56152900
Ge   17.37368000   11.44392000   18.21294000      0.514956    0.70420000   -0.01728300
Ge   13.57930000   15.95949000    8.88494000      0.162690    0.77196700    0.48725900
Ge   16.73676000   14.23976000    0.03342000      0.684757    0.32227300   -0.36038900
Ge   16.05013000    4.11371000    9.37871000      0.702248   -0.28531500   -0.71434000
Ge   18.63034000    3.69106000   18.43848000      0.414787    0.01309800   -0.15274600
Ge    0.76206000    4.16999000    9.60763000      0.588607    0.84809500   -0.03072600
Ge   21.78435000    4.53262000    2.90253000     -0.475339   -0.14194600    0.57496900
Ge    0.25023000   10.10721000    8.94082000      0.011503   -0.16884400    0.64271900
Ge   21.85839000    9.28310000   18.56391000     -1.248626    0.34486900   -0.40626700
Ge   20.86627000   15.64483000    8.89079000      1.050185   -0.08158000   -0.00818100
Ge    3.77646000   15.04395000   17.86483000      1.715156    1.74803900    1.18978700
Ge   19.13173000   22.32793000   10.50700000     -0.794286   -0.05762000    0.53990200
Ge   21.35421000   20.34782000    2.54670000      0.433222   -0.23764200   -0.05391300
Ge    3.54112000    7.04461000    7.69832000      0.515087   -0.02584500   -0.27760700
Ge    1.96506000    7.19957000   16.50993000     -0.771477   -0.30589700    0.60034300
Ge   20.47119000    8.91106000    4.84678000     -0.014215    0.09572200    0.10225500
Ge    3.19038000   12.55347000   15.26937000      1.099247    0.47985000   -0.45701500
Ge    4.50052000   18.89249000    5.14205000      0.270865   -0.66285400   -0.69436900
Ge    0.92920000   18.18886000   18.31248000     -1.373740    0.00575600    0.19101600
Ge    4.44012000   19.28588000    9.91077000     -1.001357    0.51387900    1.14719000
Ge    1.80984000    1.83023000   18.26725000     -0.194046   -0.64117000   -1.47424300
Ge    9.31802000    2.44994000    7.45259000      0.702207   -0.47990100   -0.82189200
Ge    7.30803000    6.12239000   16.64876000     -0.513824    0.37086400   -0.09025700
Ge    7.74586000   10.82942000    3.99798000      0.100878   -0.01375400   -0.05945400
Ge   10.31911000    8.01512000   16.48185000     -0.640031    0.20539200    0.59620900
Ge    6.82322000   16.72260000    8.81622000     -0.438287    0.19258700   -2.30832500
Ge   10.09457000   15.82089000   15.66665000      0.118532   -1.27674000    0.21889300
Ge   10.55980000   21.07306000    6.43416000      0.177725    0.66793500   -0.46569100
Ge   10.47913000   21.83604000   14.25946000     -0.550970   -0.31923000    0.03770700
Ge   12.74134000    7.71999000    4.94336000     -0.902178   -1.14215600   -0.53894400
Ge   15.15663000    4.90466000   16.00396000      0.226783   -1.07638900   -0.07185700
Ge   13.96778000   10.34393000    6.84972000      0.552211   -0.06087600    0.49464400
Ge   15.59542000   12.02440000   15.52188000     -0.944496    1.63686900    0.19986100
Ge   13.06803000   15.43074000    5.55742000     -0.854747   -1.12046500   -0.14061800
Ge   14.95124000   18.00951000    0.06480000     -0.020401   -0.02772000   -0.01610600
Ge   14.66278000    0.26023000   10.02006000     -0.657470   -0.17871300   -0.49242700
Ge   17.08972000   22.42528000   14.17843000      0.438033   -1.01315900   -1.24926600
Ge   20.69085000    4.35837000    8.73490000     -0.134709   -0.22644800   -0.05398800
Ge   20.07605000    5.99179000   13.69397000      0.477132    0.31098700   -0.41853400
Ge   18.44446000   10.72067000    7.47170000      0.037485   -0.43504700    0.32551500
Ge   20.76246000   15.21727000   16.87185000     -0.352106   -0.35946400    0.03420500
Ge   19.80031000   15.57403000    5.42665000     -0.470249    0.51011700   -0.30028200
Ge   17.27754000   18.29426000   16.73459000      0.778189   -0.87627300   -0.83776500
Ge    0.95909000    0.93409000    7.82830000     -0.645670   -0.08314100   -0.91735600
Ge   18.76379000   21.20698000   17.01367000      0.113178   -0.66931500   -0.11714000
Ge    7.02955000    3.34447000    6.82394000     -0.909214   -0.33741000   -0.17820500
Ge    3.54581000    3.04752000   13.09600000      0.447886    0.03083900    0.59885500
Ge    0.33827000    9.21750000    5.92636000     -0.175695   -0.56405500    0.44132100
Ge    2.59532000    7.86130000   11.03760000     -0.183304    0.33664400    0.26594400
Ge    0.88079000   15.74988000    3.74078000     -0.019347   -0.06381500    0.58617000
Ge    2.53570000   17.99851000   15.02237000      0.276608    0.31968900   -0.64247800
Ge    3.21435000    0.37362000    8.99722000      0.839374   -0.02311200    0.35736300
Ge    7.90805000   17.85705000   16.93609000     -2.833012    1.05606300   -1.20566300
Ge    7.80417000    3.58697000    2.95963000     -0.130407    0.59184500    0.22410900
Ge   10.10958000    2.57946000   16.44070000     -0.431383    0.48198400    1.03809400
Ge    8.47384000    8.40759000    4.14744000     -0.284070    0.23892000    1.70413800
Ge    7.09643000    9.88869000   13.05346000      0.497333   -0.10071500   -0.19442100
Ge    6.81697000   14.38882000    4.61979000     -0.678273    0.22985300    0.79434300
Ge   12.05686000   12.16240000   15.26781000     -2.267275    1.37132100   -0.79655600
Ge    8.16367000   20.45530000    3.38053000      0.301376   -0.76208000    0.58439000
Ge    9.33753000   16.47961000   12.62639000      0.060044    0.18221000    0.18197300
Ge   11.71217000    1.71889000    4.92395000      0.551423    0.59566900    0.53479700
Ge   12.59328000    4.21375000   13.79079000     -0.811596   -0.45579500    0.46000800
Ge   17.23790000    5.15319000    5.01203000     -0.351773   -1.17344200   -0.34543900
Ge   13.82353000    8.63766000   14.03531000     -0.371685   -0.48468200   -0.24239200
Ge   14.90966000   13.05753000    3.69462000      0.982968   -0.13463600    0.99871300
Ge   13.27389000   16.58192000   12.63141000      0.468900   -0.73045800   -0.24088900
Ge   11.73228000   17.68510000    3.93361000      0.203979    0.65010700    0.21151200
Ge   10.88792000   19.82926000   16.62628000     -0.127625   -0.16691200    0.20832900
Ge   22.22552000    4.07778000    5.47287000      0.060439   -0.06305600    0.44790900
Ge   22.52668000    2.50962000   13.68483000     -1.585363    1.48830900    0.66899200
Ge   18.71649000    7.52108000    6.90038000      0.506583    0.36089500    0.39487000
Ge   17.67306000   10.83531000   12.67758000      0.256212   -0.73574200   -0.02278600
Ge   20.82366000   16.63092000    1.43999000      0.029722   -0.56429700    0.06434000
Ge   18.41824000   15.61064000   13.80834000      0.123768   -0.14828800    0.39372000
Ge   19.17684000   19.89106000    5.68241000     -0.570712    0.00355100   -0.37992000
Ge   21.97295000   21.07036000   12.98384000     -0.698594   -0.56784300   -0.21095500
Ge    4.34171000    2.66152000    2.85805000      0.052143    0.42118000    0.46960100
Ge    6.12167000    1.09820000   13.13369000     -0.165146    0.51699600   -0.52978800
Ge    4.84760000    7.63918000    4.27689000     -0.040931    0.59073600    0.14464200
Ge    6.65861000    5.20085000   14.43848000      0.436150   -0.85801300   -0.63551300
Ge    4.19412000   12.41945000    1.20546000      0.389470    0.08897400    0.05510300
Ge    4.22351000   10.99547000   12.62532000      0.122460    0.12702400    0.23764600
Ge    4.95057000   21.58969000    6.59923000      0.823835    0.02373200   -0.08452500
Ge    6.91013000   19.74487000   12.62144000     -0.102495   -0.16350400    0.25250100
Ge   11.35533000    3.60790000    3.10990000     -0.437880    0.73310400   -0.28720500
Ge    8.08891000    4.01954000   12.28430000     -0.257968    0.39591400    0.20403600
Ge   11.51395000    7.99579000    1.45284000      1.368473   -0.30727800   -0.17458700
Ge   10.58971000    7.03049000   12.66391000      0.382683    0.04534700    0.38820800
Ge    8.26862000   13.65202000    1.38115000     -0.284521    0.20679100   -0.19326500
Ge    8.77348000   14.01753000   10.27420000     -1.005065   -0.19971700    2.18159600
Ge   11.79301000   21.65702000    1.20807000     -0.066835   -0.76010000   -0.10058400
Ge   11.29687000   19.78133000   12.61574000     -0.206513   -0.51640400    0.57836200
Ge   22.04789000    0.50960000   16.91684000     -0.542565   -0.51100300    0.08151700
Ge   12.71347000    2.44783000   10.62337000     -0.215669   -0.43799800    0.32039600
Ge   16.79569000    8.17511000    1.60866000      0.010174    0.16779100   -0.51928700
Ge   14.99486000    8.36610000   10.17451000     -0.694330   -0.25393200   -0.98380300
Ge   17.84743000   12.17658000    2.47399000      0.272940    0.04123600   -0.41511900
Ge   16.98248000   16.01995000    8.50768000     -0.728868   -0.46928300    1.06611000
Ge   16.68209000   20.46678000    2.83784000      0.555353    0.11240300    0.02841800
Ge   14.04792000   19.12108000   10.06809000     -0.024383    0.75905400    0.56088800
Ge   21.50124000    1.87835000    1.91608000     -0.773254   -0.25985700    0.76820000
Ge   21.37308000    0.99743000   10.40380000      0.216030    1.85042300    0.11613000
Ge    0.97977000    8.87713000    1.54593000      0.475945   -0.86153100    0.03170000
Ge   21.72941000    9.26979000   12.78710000     -1.121189    0.74099700    0.32381000
Ge   20.54661000   12.67570000    1.81380000     -0.130420    0.89063300   -1.24981200
Ge    0.94694000   14.68206000   10.37894000     -0.450507   -0.14853000   -0.36934500
Ge    1.24013000   19.12745000    4.64899000     -0.831266   -0.00276100    0.02934200
Ge   18.48743000   18.96388000   11.23076000      1.160270   -0.78688000    0.94428100
Se   20.66133000    0.21767000    0.39305000      0.368292    0.12513400   -0.72979600
Se    1.30575000    1.93526000   10.29587000      0.083096   -0.77095700    0.27915500
Se    2.74943000    9.96087000    2.91539000     -0.142720    0.15180500    0.13428700
Se   22.44543000    7.25993000   11.59586000     -0.186911   -0.47866900   -0.08900200
Se   22.22056000   12.32035000   18.85286000     -0.010182    0.07677100    0.16912500
Se    1.51594000   12.70232000    9.15131000      0.327731    0.06653000   -0.10833900
Se    2.62216000   17.16071000    5.40204000      0.269732    0.30195500    0.20381300
Se    1.69545000   16.89482000   11.34214000     -0.012224   -0.22851400   -0.00984400
Se    5.94381000    2.93375000    0.85733000     -0.110203   -1.24635100    0.42194000
Se    6.44918000    2.59006000   10.90607000      0.406446    0.92210500   -0.01734500
Se    6.69580000    6.01470000    1.84463000      0.110201   -0.08420900   -0.02661100
Se    8.12795000    6.99977000   12.35248000      0.213331    0.29736800    0.04565800
Se    7.86512000   10.69455000    1.23178000     -0.064431   -0.24741700    0.64146200
Se    6.52630000   12.91033000   13.34513000     -0.355063    0.25884300   -0.39490600
Se    5.64522000   20.42757000    2.23569000     -0.695604   -0.06586700    0.66778300
Se    8.58474000   18.65248000   11.04626000      0.672478   -0.37583200    0.21007400
Se   13.05639000    1.22334000    0.41486000      0.625118    0.62150300    0.97112800
Se   12.00220000    1.62244000   13.48886000     -0.457788    0.58151900   -0.56723500
Se   12.56397000    7.57991000   18.04391000     -0.525520   -0.03118100    0.50536400
Se    9.69573000    9.16093000    9.85162000     -0.769708    0.12829400    0.24025500
Se   13.02594000   13.10841000    2.30039000     -1.247531    0.33157300   -0.63650000
Se   11.65006000   10.96169000    8.71775000      0.307085   -0.38411500   -0.71745400
Se   13.96666000   16.86866000    2.40088000     -0.167956    0.02671100   -0.01482300
Se   12.01052000   17.57979000   10.39533000      0.248155    0.18975000   -0.21608100
Se   19.20234000    3.65157000    2.53544000      0.344580   -0.67031700    0.38939500
Se   16.11143000    1.94563000   12.07213000      0.083586    0.29989600    0.85986200
Se   15.60718000    8.14583000   18.01038000      0.527534    0.03545800   -0.02803100
Se   17.43699000    6.10894000   12.40565000      0.433389    0.01513400   -0.98346700
Se   18.62577000    9.62932000    0.36481000      0.061768   -0.41504800    0.26925400
Se   17.84153000   14.15505000    6.86131000     -0.926333   -0.32665000   -1.27320800
Se   20.35330000   19.20876000    0.52210000      0.349441    0.37263800   -0.22937500
Se   15.93417000   18.42078000    8.80678000      0.483667    0.23505500   -0.29936800
Se    1.72574000    2.71118000    1.57279000      0.224494    1.33808000    0.85352800
Se    5.49100000    7.06817000   10.58742000      0.034181   -0.47125200   -0.93537900
Se    5.09907000   10.05595000    2.21456000      0.295983    0.54987900   -0.86443400
Se    4.93722000   11.87784000   10.29981000     -0.440260    0.10183300   -0.53580900
Se    2.63296000   15.47367000    1.80411000     -0.032593   -1.06517600   -0.22301200
Se    2.11520000   13.19059000   13.05384000      0.550682    0.66150400   -0.33259300
Se    3.01407000   21.17018000   18.69440000     -0.127918    0.45942200   -0.25073000
Se    5.92229000   21.32545000   10.03895000     -1.246798   -0.06425300    0.43879700
Se   12.43438000    5.37827000    1.60869000     -0.228998   -0.06128900    0.09445700
Se    6.40748000    5.45270000    8.17559000     -1.326312   -1.39068600   -1.42405800
Se   11.86486000   10.36471000    0.95596000     -0.224434    0.37743300    0.12758100
Se    7.21711000   11.57171000   10.76588000      0.384326   -0.50164000    0.26327900
Se    9.71345000   15.69172000    2.17548000      0.343974    0.43874400   -1.22372100
Se   13.08692000   12.89398000   13.03956000     -0.792682   -0.62650900   -0.93453200
Se    9.61842000   21.45476000   18.32361000     -0.300393   -1.01189400    0.13309200
Se    8.16190000   22.21530000   12.57031000      0.606988   -0.12765700   -0.17591600
Se   15.51041000    4.59694000    0.69299000     -0.437111    0.65694700   -0.15830200
Se   17.02219000    7.03305000    8.79672000      0.023841   -0.33839300    0.04637900
Se   15.05957000   10.81142000   18.65859000     -0.629167   -0.38864900   -0.03291600
Se   14.72129000   11.16272000   12.05569000      0.148382   -0.13515200    0.39379700
Se   17.66545000   14.63041000    2.97670000     -0.141367    0.05243500   -0.24691200
Se   15.23979000   12.53309000   10.10870000      0.197197   -0.22942100   -0.33459300
Se   17.16432000   22.16039000    0.93635000      0.115589   -0.28286300    0.10001700
Se   14.87570000   21.04426000    8.11926000     -0.150513    0.18003000    0.25669300
Se   21.58644000    5.26512000    0.58430000      0.225235   -0.34861000   -0.66221800
Se   20.93767000    3.08043000   11.85066000     -0.086065    0.50739500   -0.29660000
Se   20.10379000    6.92832000    2.25371000      0.534059   -0.14847700   -0.60816000
Se   20.67100000   10.66708000   10.68191000      0.383574   -0.39984800    0.19341200
Se   19.53759000   14.51494000    0.30200000     -0.557183    0.56133800   -0.58882700
Se   20.64347000   16.05848000   12.34287000     -0.528408    1.03104700    0.19734600
Se   20.79924000    0.46486000    4.09651000      0.447647   -0.54999300   -0.56784700
Se   17.00861000   20.72762000   11.05497000      0.057094    0.94982700    0.47891400
Se    2.86539000    4.08590000    8.06920000     -0.182048    0.42395200    0.10997700
Se   22.16249000    3.66958000   17.31771000     -0.021321    0.09454500   -0.52391900
Se    3.01115000    9.27184000    8.68943000     -0.145768    0.34309000    0.06742600
Se    1.22766000    9.57975000   17.03581000      0.330993    0.13352300   -0.13111200
Se    4.53927000   17.52696000    8.24343000     -0.051026    0.23838900   -0.09800700
Se    0.03335000   17.97278000   15.48347000     -0.133797    0.69848100    0.53742800
Se    1.87961000   19.84432000   12.62083000      0.228385    0.25738400    0.63892300
Se    1.01755000   20.72775000   17.44646000      0.174395    0.43856300    0.19294300
Se    5.53259000    3.82931000    4.88764000      0.059879    0.36224400   -0.06599300
Se    5.60844000    4.94663000   18.62706000     -0.056712    1.06752100    0.27541500
Se    5.76746000    8.99116000    6.43174000     -0.711970    0.22329000   -0.38050100
Se    4.31168000    7.89782000   16.26276000      1.000782   -0.36957600    0.29169200
Se    6.54222000   15.79815000   10.86375000     -0.005858   -1.30244200    2.34697100
Se    6.49733000   16.15510000   18.22217000      0.207019   -0.39951700    0.11071100
Se   10.42857000   18.06030000    6.70775000     -0.775681   -0.17328300   -0.55777700
Se    6.69011000   20.50833000    0.12151000     -0.040402   -0.92256200   -1.19248300
Se    9.90659000    2.18357000    9.82312000      0.617751    0.70555100    0.74345400
Se   13.11225000    2.96807000   16.51144000     -1.194787    1.79233700    0.70946200
Se   13.70726000    7.71628000    7.19080000      0.374787    0.22318000    0.72888600
Se   13.51309000   10.52760000   15.76898000      1.611060   -2.53028900    1.03288600
Se   11.67574000   14.81259000    7.95600000      0.515272    0.17756500   -1.02368000
Se   14.27309000   15.90860000   17.68880000      0.550071    0.25659200   -0.13672800
Se   12.51947000    0.21263000    6.89381000     -0.357230   -0.42113400    0.72417200
Se   15.31204000   19.66173000   17.05596000     -0.601199   -0.07888600    0.18179600
Se   13.94847000    4.60771000   10.18621000     -0.866879    0.17222000    0.14623300
Se   20.51690000    2.17188000   15.25627000      0.579191   -0.41904900    0.13154600
Se   18.61369000    9.54863000   10.41095000      0.392282    0.41215800    0.06373400
Se   17.12106000   10.36521000   15.40555000      1.469322   -0.98448800    0.18735000
Se   14.97428000   16.41888000    6.72896000     -0.087055   -0.02018200   -0.04757900
Se   19.26318000   13.43526000   15.32098000      0.211986    0.59297200    0.46539800
Se   18.66186000   20.86550000    8.30216000     -0.367751    0.10285300   -1.28242100
Se   19.06287000   18.65240000    2.64644000     -1.148387    0.40006200    0.47985700
Se    5.44726000    1.31116000    7.56430000      0.028797    0.32805300   -0.11139900
Se    3.90548000    2.54743000   17.09802000      0.209657    0.29579100    0.42487800
Se    7.67685000    8.39088000    8.19796000      0.548532    0.35337800    0.59000800
Se    4.67669000    9.41176000   18.62354000     -0.455843   -0.68279700    0.15198100
Se    6.46694000   17.06153000    5.51111000     -0.172618   -0.15009300    0.27187500
Se    5.63987000   12.67302000   17.82804000     -0.860326    0.43384600    0.20133100
Se    1.98550000   20.47486000    9.62563000      0.642125   -0.36351700    0.73149800
Se    1.23660000   19.27519000    2.26633000     -0.349968    0.45443300   -0.54180700
Se    8.59963000   22.01303000    8.32406000     -0.302027   -0.61783900   -0.46298100
Se    9.72347000    3.46887000    1.28238000     -0.116638   -0.30933800   -0.00506600
Se   10.33396000    5.23947000    8.74980000     -0.185460    0.59324600   -0.14740000
Se    9.22268000    6.04780000   18.03605000      0.926188    0.20899600    0.27577400
Se    9.68953000   12.08970000    5.71344000     -1.022588    0.17942100   -0.63835200
Se    7.99451000   14.40258000   17.63422000     -0.272454    0.30471400    1.05203500
Se   11.45999000   21.60369000   11.00817000      1.743362    0.21892200   -0.41742900
Se   11.74842000   13.75039000   17.80822000     -0.823553    0.00915900   -0.57052800
Se   15.33104000    1.26917000    7.23672000     -0.191355    0.03934100   -0.03134000
Se   16.63129000    2.62707000    0.54030000      0.118674   -0.33605000    0.11920100
Se   15.55643000    5.29322000    7.05607000     -0.012222   -0.89883500    0.32724800
Se   15.51491000    7.23939000   15.54006000      0.245364    0.98405000    0.10230400
Se   15.97292000   10.25115000    8.80074000     -0.475723    0.51696100    0.15306000
Se   14.10176000   13.18079000    0.06246000      0.624380   -0.42957900    0.17901700
Se   13.73248000   19.02765000    5.37446000     -0.851617    0.40019700   -0.01836100
Se   17.64391000   17.75555000    0.12917000     -0.773321   -0.24669400    0.12211800
Se   21.00542000    1.66395000    8.01988000      0.214200   -0.17798800   -0.47896000
Se    0.94567000    0.38910000   13.82515000      0.498378   -1.22812500   -0.67405300
Se   20.68125000    6.84034000    9.31635000      0.312341    0.87481700   -0.29759400
Se   21.21932000    6.95736000   17.80020000     -0.210152    0.80984600   -1.18577900
Se   21.34875000   11.03098000    7.18206000     -0.002954   -0.15256200   -0.40862000
Se   20.47119000   11.41914000   17.45157000      0.490689   -0.34579600    0.05404200
Se   19.05778000   16.99119000    7.76472000      0.883741    0.72670200   -0.23519000
Se   19.50152000   17.08816000   15.84406000     -0.378580    0.47551000    0.22269700
Se    4.12336000    0.89208000   11.50917000     -0.687680   -0.37294600    0.07175700
Se    2.28671000    2.00296000   15.34580000      1.134554    0.15257500   -0.18102800
Se    0.24146000    7.23087000    8.04469000     -0.330202    0.25930200   -0.06175200
Se    0.95991000    9.86298000   14.55961000      0.192828    0.05545200   -0.94698700
Se    3.69448000   14.74978000    5.50459000     -0.339645   -0.56446100    0.27893400
Se    2.13292000   13.77581000   17.08027000     -2.045239   -1.15366300   -0.71608200
Se    0.74633000   16.94818000    8.71063000     -0.474202   -0.45266900    0.51554100
Se    3.14643000   20.69064000   14.77281000     -0.292195   -1.07019400   -0.17490400
Se    6.44887000    0.84684000    3.53657000      0.563876    0.02694500   -0.48172100
Se    7.87045000   22.35349000    1.70693000      0.466131    1.35029600    0.05324200
Se    9.88718000    8.99862000    6.53763000     -0.905282   -0.79603600   -0.10759600
Se    4.34050000    5.64210000   14.40375000     -0.317124   -0.45371000    0.06518200
Se    5.78148000   12.14977000    4.42155000      0.023370   -0.36489400    0.88682800
Se    9.90374000   13.59936000   13.82217000     -0.251856    0.19887300    0.03982100
Se    8.33768000   17.60848000    4.23109000     -0.364470    0.39483400   -0.36989200
Se    7.74500000   16.35773000   14.96707000      0.104122    0.16817000   -0.80734900
Se   13.65623000    0.66521000    4.13928000      0.711585   -0.35860500   -0.60180600
Se   13.91489000   22.04926000   16.82850000     -0.159394   -0.05348500   -0.55382000
Se   11.82724000    9.90937000    5.50078000      0.221359    0.52056900   -0.83079400
Se   11.79632000    6.45923000   15.19241000      0.191150   -0.34167100   -1.16587800
Se   13.09785000   12.73701000    5.43291000      0.336619    1.18655400   -0.34000800
Se   14.10208000   14.56172000   14.33294000      0.428844    0.54082500    0.14329100
Se   12.30556000   19.32992000    7.43126000      1.164565   -0.63999300    0.44990400
Se   12.50323000   18.82686000   18.91714000     -0.077823   -0.03772200    0.27430900
Se   20.20857000    2.46873000    5.05872000     -0.212597    0.42248200    0.27990100
Se   17.07655000    0.55926000   16.52231000      0.625241    0.20265800    0.75487900
Se   19.36612000    5.04919000    6.37044000      0.254387    0.11998000    0.18881900
Se   18.75782000    5.55092000   15.63265000     -0.563081   -0.14513200    1.41256400
Se   19.30693000   11.71096000    4.41258000     -0.089378   -0.55446700    0.82289800
Se   17.47935000   13.40442000   12.19114000     -0.211878    0.13339200    0.49708200
Se   17.81331000   17.74935000    4.96216000      0.569265    0.43189000   -0.12552800
Se   17.49403000   19.76020000   14.62115000      0.378213    0.67830900    0.41787800
Se    2.64835000    7.32475000    5.41051000     -0.480775   -0.32432000    0.34732300
Se    1.54536000    7.03212000   13.43544000      0.041497   -0.19259300    0.15218600
Se    1.88381000   11.05653000    5.52956000      0.358351    0.19425900   -0.12298600
Se    4.26307000   10.14377000   15.35975000     -0.085198    0.45803700   -0.53797900
Se    6.44923000   14.17801000    7.90327000      0.005764    0.21942700   -0.64730100
Se    3.07183000   17.88060000   17.42793000      1.907814   -0.93459500    0.50825200
Se    1.54194000   19.45276000    7.53831000     -0.334190    0.38122100   -0.48236400
Se    6.25030000   22.35922000   15.34589000     -0.235509   -0.53025900    1.28530300
Se    9.64214000    0.79487000    5.23183000     -2.077070   -0.22257000    0.17725100
Se    7.45323000    2.01778000   17.72686000      0.654331    0.04524900   -0.68117700
Se   12.30741000   12.73635000    9.87834000      0.390255    0.05236200    0.10156200
Se    9.16826000   11.04618000   17.08440000      1.181643    0.04973200    0.70121300
Se    9.28148000   13.84727000    8.04131000     -0.965109    0.19952100   -1.68804900
Se   11.45826000   17.32008000   14.10189000     -0.934738    0.41028200    0.30053100
Se   11.93851000   20.43697000    4.00119000      0.342251   -0.92979500    0.67736400
Se   10.01032000   17.57332000   17.69477000      2.260098   -0.36270500    1.29484000
Se   11.54323000    3.41567000    6.75743000      0.316907    0.52512000   -0.09398200
Se   17.43885000    3.09109000   15.94362000      0.358306    0.65051800    0.37073700
Se   16.71665000    8.93293000    5.45703000     -0.455399    0.18006900    0.81791400
Se   16.08274000    8.32553000   12.24718000      0.106136    0.94635300    0.92923500
Se   16.70704000   11.63722000    5.78229000      0.465598    0.36169400    0.17775500
Se   15.03498000   16.76058000   15.57074000      0.275680    0.71802900    0.51404300
Se   16.73147000    2.49384000    4.62363000     -0.336468    1.25729600    0.29205200
Se   18.37485000    4.03752000   13.05235000      0.814658   -1.43586100   -0.41510100
Se    1.90483000    2.52114000    5.99950000     -0.505909    0.18126200    0.25007500
Se    0.33353000    4.74035000   15.14465000     -0.051940    0.01871300    0.35853900
Se   19.02205000   13.09289000    8.48547000      0.263096   -0.84557700    0.67115900
Se   21.13628000   12.56683000   13.46651000      0.329460   -1.17963000    1.98123300
Se   21.49603000   14.41928000    6.77161000      0.527764    0.07273700    0.27629100
Se   20.29626000   18.91173000   13.04437000     -0.488521   -0.16588400   -0.61064900
Se   20.05776000   19.30894000    9.19111000      0.315465   -0.83993100   -0.04285300
Se   20.94804000   20.88237000   15.88982000      0.039279    0.34065600    0.04004400
Se    3.40645000    0.70033000    4.48687000     -0.474572    0.20883100   -0.63799200
Se    6.58106000    2.49203000   15.33997000      0.517666    0.87104300    0.10682900
Se    2.15432000    6.58789000    0.17887000     -1.154456    0.12407400   -0.53538300
Se    4.94111000    8.29424000   12.46054000      0.038453    0.71761600    1.02566000
Se    1.38511000   13.34500000    2.46122000      1.159960    0.50094700   -0.75110500
Se    5.27018000   14.29926000   14.74599000     -1.060821   -0.13038400    0.22469800
Se    4.50452000   18.38319000    2.45326000      0.053676   -0.29867000    0.61248200
Se    4.63832000   18.47393000   12.30208000      0.035048   -0.11944500   -0.86292400
Se   10.19186000    0.59814000    2.26111000      0.003388    0.63985300    0.64330500
Se   11.04057000    0.38867000   17.28607000      0.202578    0.65214900   -1.32830900
Se    9.48278000    7.21669000    2.42634000     -0.243710   -0.79611500   -0.61596800
Se    7.67541000    8.42430000   15.88600000     -0.279993    0.12820400   -0.15570700
Se   10.18664000   10.85061000    3.38207000      0.330253    0.94883100   -0.00538000
Se    9.94821000   10.75630000   12.00820000     -0.295144   -0.30197700    0.35218500
Se   10.04616000   19.21795000    1.86450000      0.344603    1.13466100    0.76830100
Se   15.14202000   18.36414000   12.69428000     -0.320125    0.52449400    0.11202200
Se   14.36234000    3.16199000    6.01568000      1.234235    0.20075500   -0.14967900
Se   14.45861000    1.43984000   15.53376000      0.220432   -0.25651000   -0.40363300
Se   15.17571000    6.44058000    3.28924000     -0.024564   -0.11973300   -0.31549300
Se   12.46266000    8.19646000   11.07996000      0.460665   -0.50305400    0.17781800
Se   16.00607000   10.55605000    2.93252000     -0.330582    0.31859800   -0.32239500
Se   17.09367000   14.30602000   16.34408000      0.405109   -0.39714100    0.20567200
Se   15.51882000   15.73368000    3.98879000     -0.187892   -0.08804100   -0.10508900
Se   14.68494000   22.30347000   13.01625000     -0.269526   -0.57578000   -0.40736300
Se    1.01927000   21.41950000    5.77119000      0.320677   -0.51729300    0.36649600
Se   19.72652000   22.40459000   12.96253000     -0.298554    0.20075500    0.57004900
Se    0.09816000    7.56770000    3.45279000     -0.389864   -0.24924200    0.07314400
Se   19.66921000    8.66825000   14.05163000      0.641077    0.23180800   -0.45180200
Se    1.40409000   13.86009000    5.65291000      0.723140    0.97412700   -0.09181200
Se   22.44123000   15.71375000   15.00250000      0.305976   -0.70717700   -0.34757500
Se   21.45154000   18.23207000    4.81457000      0.587270   -0.13939400   -0.09883800
Se   21.58858000   21.20210000   10.15161000      0.606223   -1.28115800    0.48315000
Se    3.21603000    5.01081000    3.22834000      0.261301    0.08689000   -0.00782200
Se    2.29293000    4.83361000   11.83412000     -0.299682   -0.09644400   -0.37856600
Se   20.94649000   10.55792000    2.95129000      0.645726   -0.73736700    0.60234500
Se    2.10824000   10.31887000   11.66981000     -1.402630   -0.16506200    0.10804000
Se    0.36848000   15.70483000    0.14515000     -0.636876    0.52947500   -0.49191600
Se    3.39366000   15.46534000   12.54558000     -0.226867   -0.44087900    0.33786300
Se    1.87839000    0.56514000    2.39718000      0.090998   -1.28747100    0.50978100
Se    5.64781000   20.05917000   15.41444000     -0.609991   -0.37139700   -0.57194800
Se    9.55260000    4.65347000    4.92370000     -0.003073   -0.36803300   -0.40839100
Se    9.40933000    2.58073000   14.08757000      0.224665   -0.73619600   -0.44173300
Se    6.98299000    6.45954000    4.98507000      0.528471   -0.11176100   -0.61841400
Se    8.27002000   12.38672000   15.24815000      0.127266    0.35632300   -0.86310500
Se    5.62434000   14.53317000    2.51647000     -0.250669    0.43133700   -1.54337000
Se   10.92079000   15.10599000   10.90866000     -0.455182    0.30169400    0.89791400
Se    7.43205000   20.67074000    6.41268000     -1.742762   -0.24478500   -1.48024700
Se    8.80067000   19.80598000   15.06856000      0.376344    0.48225600   -0.20470800
Se   14.18579000    2.30523000    2.51645000     -0.349945   -0.46179800   -0.65332300
Se   10.73561000    4.63493000   11.91976000      0.818040    0.10631700   -0.10765400
Se   14.06845000    8.58678000    3.01170000     -0.379668   -0.47350700   -0.22037200
Se   10.94195000    9.81941000   13.97145000     -0.017738    0.27513200    0.12872400
Se    9.24434000   14.28328000    4.57796000      0.466774   -0.87642100    0.30797300
Se   14.47461000   14.93696000   10.91767000      0.494942   -0.12721500   -0.26477600
Se   14.30271000   20.15358000    1.81671000      0.332622   -0.49222300    0.43596700
Se   13.63643000   20.01443000   14.03664000     -0.543408    0.79133700   -0.58341900
Se   18.24921000    6.23365000    0.40413000     -0.250606   -0.13062600    0.39537300
Se   14.93213000    4.57782000   13.44173000     -0.086489    0.20607000    0.54524500
Se   18.30823000    7.72756000    3.96419000      0.267246    0.25517000   -0.59554200
Se   21.07343000   13.77302000   11.62611000      0.342573    0.24401600   -1.63345300
Se   21.19512000   14.61849000    3.34373000     -0.538475    0.14170400   -0.07383900
Se   16.97481000   17.01549000   11.58841000      0.800837   -0.38617800   -0.20479900
Se   16.85019000   21.08441000    5.23256000      0.189215   -0.00078900   -0.65845600
Se   16.84310000    1.51567000    9.83334000      0.323683   -0.04138500   -0.07311800
