384
22.54784000 22.54784000 18.93360000
Ge    4.66635000    4.78730000    9.91459000     -0.028465   -0.76590200   -0.11163000
Ge    4.24305000    7.13376000    1.49585000      0.132969   -0.44150500    0.07578400
Ge    3.97394000   11.02130000    7.06674000      0.115724    0.09078500   -0.26496600
Ge    6.77819000   10.55055000   17.93088000     -0.142887   -0.56399700   -0.02940100
Ge    4.58462000   14.42224000    9.82062000     -0.135798   -0.40618600    0.16564000
Ge    8.36507000   17.90854000    1.05542000     -0.027702   -0.59856200    0.17303800
Ge    7.18578000   19.78997000    8.72200000      0.912205    0.15808300   -0.42403400
Ge    5.41137000    0.03495000   17.79331000     -0.039106    0.11477900   -0.25810500
Ge    8.22260000    6.49168000    9.65344000      0.202339    0.33218600   -0.23091400
Ge   11.64496000    5.25261000   17.99537000      0.551763   -0.91121000   -0.13287900
Ge   11.37871000    7.71681000    8.82049000     -0.073576   -0.22500400   -0.72215600
Ge   10.23907000   12.17806000    0.25614000     -0.810226    0.74453200    0.39058700
Ge    9.45700000   16.82593000    8.83509000      0.489840    0.28439300   -0.31746400
Ge   11.82099000   15.52000000    0.67787000      0.741887    0.15689800   -0.21983200
Ge    9.41561000   22.45958000   10.53984000      0.720354    1.01875100   -0.42469400
Ge   15.10850000   21.35452000   18.66711000      0.693052   -0.03199800    1.48627700
Ge   18.29218000    4.94488000   10.19313000      0.379728    0.86618500    0.31093000
Ge   18.42312000    7.99514000   17.12279000      0.210890    0.11581200    0.53343600
Ge   18.69922000   14.76682000   10.58050000     -0.477304    0.47968800    0.45369500
Ge   17.30461000   11.35802000   18.12909000      0.695665    0.27261800   -0.07171300
Ge   13.50588000   15.96956000    8.94706000     -0.112084    0.44898300    0.18992200
Ge   16.85740000   14.37884000    0.12821000      0.073573    0.22248700   -0.74722700
Ge   16.10247000    4.16963000    9.34115000     -1.016876   -0.35965100    0.14318200
Ge   18.67193000    3.58760000   18.39954000      0.043021    0.08375800    0.17895300
Ge    0.81241000    4.11509000    9.58583000      0.482702   -0.01101400   -0.08510600
Ge   21.77990000    4.34704000    2.97681000     -0.581317    0.04882300   -0.36905800
Ge    0.24103000   10.01138000    8.89422000      0.332368   -0.10001000    0.95605300
Ge   21.94063000    9.28503000   18.43032000     -1.599359    0.33083400   -0.31755900
Ge   20.99675000   15.68775000    8.82774000      0.420176    0.17150600   -0.35430500
Ge    3.82705000   15.04833000   18.05947000     -0.047883    0.43297800    0.10070300
Ge   19.11182000   22.23825000   10.53969000     -0.518213    0.21852400    0.52137100
Ge   21.52239000   20.30337000    2.79792000      0.216075   -0.43098500   -0.66516500
Ge    3.93474000    7.11044000    7.63240000     -0.347868    0.64820100   -0.35719700
Ge    1.91958000    7.12170000   16.55380000     -0.802378   -0.49484500    0.11075700
Ge   20.42263000    8.94098000    4.78473000      0.113945    0.36583600   -0.42489300
Ge    3.28742000   12.56545000   15.33347000     -0.357040    0.42196000   -0.56723000
Ge    4.59246000   19.13852000    5.06740000      0.080346   -1.22776600   -0.56057000
Ge    0.86671000   18.10394000   18.38866000     -0.135643    0.23971000   -0.11412900
Ge    4.33907000   19.38351000    9.95094000     -0.383680   -1.10276900    0.70402400
Ge    1.71450000    1.71726000   18.33254000      0.169980   -0.48032400   -1.00648100
Ge    9.35834000    2.21825000    7.46448000      0.348309   -0.32080800   -0.38231100
Ge    7.31525000    5.94287000   16.81474000      0.276122    0.66996500   -0.36760300
Ge    7.66885000   10.79836000    3.98470000      0.643387   -0.52777400   -0.09493600
Ge   10.27056000    8.16380000   16.38642000     -0.306815   -0.22311200    0.38753400
Ge    6.83587000   16.53066000    8.67204000      1.478632    0.03450700    0.21017800
Ge   10.13564000   15.73219000   15.70166000     -0.408612   -0.79539800   -0.17803100
Ge   10.54447000   21.10642000    6.27792000      0.045465   -0.01503500    0.28410600
Ge   10.55251000   21.99156000   14.20145000     -0.472354   -0.09089500    0.27278700
Ge   12.71224000    7.77277000    4.89361000     -1.026225   -1.24715400   -1.02461600
Ge   15.06450000    4.74399000   16.06357000      0.788460   -0.21259400   -0.05549700
Ge   14.03401000   10.30364000    6.86062000      0.621242   -0.31702600    0.65215800
Ge   15.43276000   12.16106000   15.43204000      0.771948   -0.10407600   -0.15122100
Ge   12.97043000   15.19729000    5.57177000     -0.602270    1.34005100   -0.15582300
Ge   15.06637000   18.18281000    0.27663000     -0.671985   -0.78600800   -0.31425900
Ge   14.79594000    0.31220000   10.06024000     -1.187577   -0.43585600   -0.72343000
Ge   17.11055000   22.32834000   14.13169000      0.156052   -0.72532000   -1.32245600
Ge   20.74834000    4.29459000    8.67846000     -0.104622    0.29144600    0.27111600
Ge   19.79437000    5.81693000   13.74534000      1.650165    1.07351800   -0.59463000
Ge   18.61145000   10.79687000    7.59584000     -0.308337   -1.02064800   -0.12146400
Ge   20.81690000   15.10718000   16.84525000     -0.321818    0.31335800   -0.20602400
Ge   19.70854000   15.57630000    5.32538000     -0.322576    0.29070700    0.35713100
Ge   17.39240000   18.23059000   16.69368000      0.048112   -1.05439200   -0.02855000
Ge    1.00741000    0.97176000    7.81667000     -0.421250   -0.09708500   -0.92539400
Ge   18.87340000   21.24091000   16.96141000     -1.205226   -0.52263200    0.77395700
Ge    7.00737000    3.33380000    6.84492000      0.268501   -0.10898100   -0.23980100
Ge    3.53334000    2.95302000   12.96594000      1.014573   -0.56991700    0.81463600
Ge    0.28356000    9.29268000    5.92760000     -0.423257   -1.29091800    0.19204500
Ge    2.54887000    7.79154000   11.07907000     -0.787199    0.53189800    0.45366500
Ge    0.89272000   15.77215000    3.69258000     -0.108740    0.00927800    0.33375400
Ge    2.55051000   18.16501000   14.97681000      0.252115   -0.58305700   -0.41438000
Ge    3.44994000    0.30445000    9.02238000      0.327807   -0.06121200   -0.41901200
Ge    7.86392000   17.71625000   16.99346000     -0.483266    1.34607700   -0.34014500
Ge    7.66709000    3.53005000    2.89584000     -0.026254    0.37217100    0.07783100
Ge   10.13671000    2.64293000   16.51676000     -0.700709    0.72776500    0.97488100
Ge    8.59047000    8.27006000    4.28273000     -0.199765    0.78226700    0.72136500
Ge    7.03478000    9.80173000   12.90266000      0.757546    0.15906800    0.03957400
Ge    6.71780000   14.33558000    4.77524000     -0.555229    0.74910500    0.02087000
Ge   11.77009000   11.99621000   15.38518000     -0.194206   -0.10949500   -0.54549800
Ge    8.11339000   20.38706000    3.52441000      0.194363   -0.20034400    0.10358200
Ge    9.41836000   16.46331000   12.60787000     -0.198759    0.44066700    0.57295500
Ge   11.70780000    1.77173000    5.11353000      0.367981   -0.06139500   -0.36377500
Ge   12.65513000    4.11627000   13.87355000     -0.963971    0.32592200    0.18718200
Ge   17.28209000    4.98941000    5.18590000     -1.130215   -1.00002300   -1.32392000
Ge   13.88306000    8.53651000   13.88439000     -0.791663   -0.33259000    0.72276000
Ge   15.01673000   12.98922000    3.63597000     -0.342043    0.15022900    0.57638200
Ge   13.47256000   16.28770000   12.58136000     -1.289078    2.38020200    1.53278800
Ge   11.60149000   17.89704000    3.86403000      0.287406    0.47191300    0.38575500
Ge   10.72614000   19.81565000   16.51331000      2.098880   -0.15260500    1.69565300
Ge   22.21426000    4.26804000    5.53981000      0.131242   -0.61399300    0.41637700
Ge    0.02524000    2.50931000   13.67733000     -1.288354    1.55081600    0.65893600
Ge   18.85125000    7.53264000    6.77652000     -0.059625    0.48149600    0.71641700
Ge   17.54699000   10.65332000   12.62345000      0.412076    0.07023600    0.46843300
Ge   20.64133000   16.53460000    1.32172000      0.620667    0.60512900    0.65181800
Ge   18.51703000   15.37006000   13.85014000      0.016534    0.75933300    0.02786900
Ge   19.10338000   19.80454000    5.65064000      0.594548    2.24807700    0.07895000
Ge   21.94719000   21.23765000   12.89692000     -0.303249   -1.62880800   -0.69894900
Ge    4.37436000    2.65407000    2.89930000     -0.124272   -0.03051800    0.34211100
Ge    6.14092000    0.92873000   13.15029000     -0.876564    1.12161000   -0.58608300
Ge    4.82540000    7.69643000    4.21786000     -0.604709    0.05198900    0.22945500
Ge    6.68211000    5.32656000   14.42929000      0.082953   -0.88532300   -0.01764800
Ge    4.14523000   12.35010000    1.36662000      0.480974    0.06059200    0.01538400
Ge    4.36494000   10.85862000   12.70680000     -0.898451    0.45901500   -0.40450400
Ge    4.69341000   21.64634000    6.70675000      1.033354    0.33716300   -0.51460500
Ge    6.77764000   19.69089000   12.59612000     -0.169638   -0.42407400   -0.11300700
Ge   11.17649000    3.63530000    3.17590000      0.315598    0.26877600   -0.51010200
Ge    8.18653000    4.16091000   12.38085000     -0.206100   -0.00682000    0.09366800
Ge   11.41482000    7.98944000    1.36065000      1.076641   -0.10659900   -0.05690000
Ge   10.44364000    7.09011000   12.70096000      2.951626   -0.05373800    0.45264000
Ge    8.27590000   13.82099000    1.36233000     -0.241167   -0.53008000   -0.10875500
Ge    8.73651000   14.01570000   10.27446000     -0.932966   -0.65050200    0.65594500
Ge   11.80291000   21.56159000    1.28769000     -0.225060   -0.36343600   -0.33989000
Ge   11.24781000   19.86458000   12.68548000      0.106356   -0.71352800    0.21757400
Ge   22.15143000    0.51631000   17.11584000     -0.432775   -0.71706300   -0.32148300
Ge   12.69283000    2.42638000   10.72752000     -0.233605   -0.43489300   -0.16861700
Ge   16.72727000    7.92295000    1.75676000      0.224427    0.06206000   -0.44756200
Ge   15.02057000    8.29818000   10.32782000     -0.451529   -0.51820100   -1.09876100
Ge   17.87897000   12.29840000    2.32291000      0.326533   -1.90449500   -0.48575600
Ge   16.91998000   16.00952000    8.58435000     -0.236921   -0.01148500    0.56379300
Ge   16.78023000   20.52142000    2.66206000     -0.016183   -1.19279300    2.32312400
Ge   13.88902000   19.22257000   10.09831000      0.716043    0.24270400   -0.05500800
Ge   21.57010000    1.85402000    2.02149000     -0.912488   -0.18426500    0.47281800
Ge   21.23815000    1.06698000   10.31871000      0.293729    1.32158400    0.51881500
Ge    0.98316000    8.86138000    1.41339000      0.861920   -0.77556200    0.94374900
Ge   21.73603000    9.27043000   12.85530000     -0.874217   -0.35398100    0.25028000
Ge   20.62554000   12.88634000    1.78130000     -0.223514   -0.45050800   -1.10953200
Ge    0.97795000   14.77571000   10.38069000     -0.883295   -2.50585500   -1.50977700
Ge    1.34087000   19.14423000    4.71800000      0.560919   -0.45811700   -0.83703400
Ge   18.63420000   19.00257000   11.29414000      0.365103   -0.43190200    0.24499500
Se   20.83248000    0.23358000    0.39093000      0.171908    0.14623800   -0.26768400
Se    1.43378000    1.76293000   10.24446000     -0.862976    0.20802200   -0.36663600
Se    2.86881000   10.02247000    2.88281000     -0.689062   -0.08756400   -0.06614800
Se   22.39785000    7.16477000   11.53086000     -0.045775   -0.07723200    0.87085600
Se   22.17181000   12.39826000   18.60839000      0.624271    0.54332700    0.98702100
Se    1.61088000   12.56971000    9.09092000      0.246884    0.59169600    0.24030600
Se    2.52854000   16.92206000    5.51430000      0.712193    0.96152500   -0.08062200
Se    1.58799000   16.79357000   11.24054000      0.276499    1.78746400    0.79751900
Se    5.80306000    2.96379000    0.88225000     -0.168297   -0.51270100   -0.03487100
Se    6.42042000    2.93615000   11.01544000     -0.112335    0.66233800    0.03495700
Se    6.67536000    6.08082000    1.90292000      0.354910   -0.33237900    0.10502800
Se    8.19404000    6.91796000   12.34981000     -1.830336    0.20874900    0.02985100
Se    7.85421000   10.63800000    1.19997000     -0.040818   -0.16694400    0.66990100
Se    6.51346000   12.96075000   13.34128000     -0.092273   -0.46193500   -0.22184200
Se    5.78471000   20.34377000    2.29230000     -0.305036   -0.29144100   -0.50837800
Se    8.62759000   18.78978000   10.91287000      0.211137   -0.32478400    0.13494300
Se   12.89250000    1.23486000    0.45261000      0.437204    0.58190100    0.71936600
Se   11.95451000    1.68031000   13.34760000     -0.242659    0.33481800   -0.18316200
Se   12.50488000    7.52307000   18.00434000     -0.068611    0.86817300    0.31527000
Se    9.59036000    9.23303000    9.88287000     -0.408596    0.03441800    0.13155900
Se   12.95004000   13.11618000    2.24976000      0.022176    0.46469900   -0.54582300
Se   11.73860000   10.97368000    8.59397000      0.160539   -0.80663000   -0.77293000
Se   13.92881000   16.94898000    2.33745000     -0.076188   -0.40020900    0.18399900
Se   11.94606000   17.52553000   10.34827000      0.590052    0.48730700   -0.10712100
Se   19.06578000    3.57719000    2.62088000      0.440140   -0.55479200    0.83921100
Se   16.14371000    1.88171000   12.20317000      0.137717    0.36325200    0.53912800
Se   15.82412000    8.26068000   17.99514000      0.117538   -0.47044600   -0.32819400
Se   17.43858000    6.09574000   12.34411000      0.538094   -0.79790500   -0.43528900
Se   18.61273000    9.54728000    0.50023000     -0.156947    0.29487900   -0.33552200
Se   17.83278000   14.19054000    6.91843000     -0.629612   -0.40981300   -1.19273000
Se   20.39283000   19.19401000    0.47349000      0.194317    0.22306900    0.53825100
Se   15.98002000   18.37836000    8.79468000     -0.529055    0.79880800    0.41183400
Se    1.60460000    2.65069000    1.66906000      0.286646    1.47771200    0.33412300
Se    5.48733000    7.15051000   10.50301000      0.225127   -0.19975000   -1.25885100
Se    5.25085000    9.95595000    2.31905000      0.242306    0.75616900   -0.93338400
Se    4.88808000   11.77631000   10.20878000     -0.744496    0.33302800   -0.28116400
Se    2.66250000   15.44065000    1.62295000      0.303949   -0.74140600   -0.11237600
Se    2.01253000   13.20763000   13.02070000      0.867936    0.61286600    0.20127800
Se    3.10360000   21.16828000   18.70692000     -0.953706    0.21719400   -0.83444500
Se    5.74397000   21.37821000   10.04729000      0.084133   -0.30716200    0.09167200
Se   12.35213000    5.43231000    1.56529000      0.003878   -0.09543000    0.43320800
Se    6.52825000    5.50210000    8.09790000     -0.883626   -0.96079500   -0.40136400
Se   11.80573000   10.54775000    0.91798000      0.251076   -1.00937900    0.44170800
Se    7.09483000   11.28906000   10.71625000      0.902162   -0.04857700    0.04244100
Se    9.81437000   15.68089000    2.14070000     -0.128443    0.66897200   -0.49909900
Se   13.16612000   12.90826000   12.85360000     -1.040356   -0.40955200    0.95338500
Se    9.70554000   21.32459000   18.40244000      0.364974    0.55910300   -0.14472600
Se    8.24202000   22.26579000   12.55305000      0.417230   -0.48728600    0.64359100
Se   15.56787000    4.60735000    0.51013000     -0.044910   -0.13449600   -0.36885800
Se   16.97307000    6.96090000    8.80317000      0.291850   -0.14083800    0.05509800
Se   14.92518000   10.82686000   18.79949000     -0.248477   -0.01977100   -0.01555500
Se   14.85415000   11.27238000   12.07700000     -0.172734   -0.16437200    0.41207300
Se   17.60281000   14.52836000    2.94373000      0.465756    1.70314400    0.30088300
Se   15.34596000   12.42904000   10.09909000      0.567530   -0.21491600   -0.59870900
Se   17.07172000   22.10027000    1.08986000      0.777472    1.55193100   -1.65006100
Se   14.82309000   21.11754000    7.86903000      0.238116   -0.12751200    0.71897700
Se   21.68345000    5.13836000    0.65057000     -0.062720    0.26627500   -0.13962500
Se   20.97837000    3.11609000   11.84181000     -0.093903    0.31607000   -0.27095700
Se   20.10845000    6.99061000    2.06333000      0.622741   -0.45411800   -0.44814200
Se   20.72841000   10.41617000   10.76507000      1.680334    0.77077500    0.32142500
Se   19.54579000   14.62949000    0.22503000     -1.035117   -0.42379300   -1.10468300
Se   20.69489000   16.24286000   12.47580000     -0.459620    0.34651700   -0.35585500
Se   20.79818000    0.52789000    4.03700000      0.168797   -0.38287400    0.08924500
Se   17.04083000   20.76686000   10.96262000      0.257639    0.09274300    0.48053600
Se    2.80706000    4.27340000    7.96711000      0.085101    0.20655000    0.41543300
Se   22.10709000    3.57223000   17.18524000     -0.365858    0.15199200   -0.44745300
Se    2.88030000    9.47349000    8.64654000      0.141016   -0.81539600    0.05736300
Se    1.36337000    9.51131000   17.04900000      0.404413    0.53005100   -0.47655100
Se    4.76427000   17.33304000    8.17001000     -1.862177    1.50745100    0.07535200
Se    0.07329000   17.97829000   15.59641000     -0.110243    1.68493600    0.79636800
Se    1.68526000   19.80756000   12.78726000      0.006008    0.14680400    0.08506200
Se    0.99372000   20.75919000   17.30292000      0.650790    0.45429500    0.82151400
Se    5.49562000    3.77092000    4.90795000      0.101962    0.66578900   -0.13065100
Se    5.53576000    5.16854000   18.35881000      0.101734    0.46033700    0.71884600
Se    5.67231000    8.80918000    6.37511000     -0.510347    0.83661900    0.24187000
Se    4.22685000    7.79018000   16.12810000      1.115362   -0.58407400    0.20894500
Se    6.57593000   15.54128000   10.95449000      0.581438    0.15147800    0.91448100
Se    6.39577000   16.17417000   18.24907000     -0.313761    0.18442500    0.56066800
Se   10.25455000   18.08459000    6.57936000      0.254966    0.07103300    0.25316000
Se    6.65632000   20.26974000   18.77315000     -0.148719   -0.22448700    0.16203000
Se    9.90205000    2.32091000    9.90008000      0.237401   -0.13804500    0.60156400
Se   13.08534000    2.99816000   16.42951000     -0.989720    1.08561400    0.43742700
Se   13.54916000    7.65765000    7.08379000      0.924835    0.12065300    1.49029800
Se   13.65277000   10.39861000   15.85633000     -0.056704   -0.41254700    0.23922700
Se   11.64042000   14.80361000    7.83633000      0.191158    0.38557500   -0.16350900
Se   14.23969000   15.99964000   17.78580000      0.705966    0.67295200   -0.63067100
Se   12.40910000    0.21442000    6.87342000     -0.106213   -0.34815400    1.17876900
Se   15.21091000   19.55605000   17.00704000     -0.293303    0.10816100    0.54236200
Se   13.83738000    4.58560000   10.25908000      0.421862    0.10106200   -0.35303700
Se   20.41098000    2.34404000   15.31938000      0.943907   -0.29028500    0.10661100
Se   18.61969000    9.74136000   10.33192000     -0.996662   -0.42081800   -0.35951900
Se   17.24750000   10.22392000   15.50223000     -0.041651    1.08392800    0.20246900
Se   14.87491000   16.44281000    6.77330000      0.022813   -0.10403400   -0.23050200
Se   19.37451000   13.40881000   15.23557000      0.304795    0.04951400    0.43402600
Se   18.69527000   20.93372000    8.21680000     -0.138052    0.08092200   -0.85617800
Se   19.01328000   18.74296000    2.65820000     -0.735274    0.61877800    0.09365600
Se    5.61145000    1.47257000    7.51564000     -0.776996   -0.69003800    0.48247500
Se    3.83268000    2.50891000   17.36632000     -0.147132    0.05626300   -0.44744200
Se    7.59004000    8.49523000    8.23527000      0.769244    0.36609900    0.34203800
Se    4.60338000    9.42220000   18.70311000     -0.175520   -0.43361600    0.02338100
Se    6.55581000   17.07051000    5.37004000     -1.547941   -0.22947700    1.15119200
Se    5.68945000   12.81426000   17.89633000     -0.767341   -0.42083100    0.41438800
Se    2.02234000   20.49276000    9.83827000      0.058386   -0.36467700   -0.11724100
Se    1.30449000   19.26771000    2.09714000     -0.139364    0.32037400    0.60460600
Se    8.60119000   22.07285000    8.42205000     -0.302199   -1.03282200   -0.31158400
Se    9.72250000    3.56142000    1.22398000     -0.607602   -0.55268200    0.18027700
Se   10.19501000    5.38484000    8.67389000      0.183473    0.45712900    0.13228800
Se    9.35209000    6.11248000   18.21452000     -0.639719    0.63653000   -0.29853600
Se    9.67450000   12.15622000    5.81646000     -0.793600    0.22303300   -1.00395800
Se    7.94195000   14.50863000   17.72628000      0.113046    0.00146300    0.47669600
Se   11.59315000   21.71296000   11.08128000      0.751875    0.09180700   -0.51056600
Se   11.59322000   13.63921000   17.72879000     -0.187272    0.71877600   -0.51460500
Se   15.30013000    1.23347000    7.30541000      0.087167   -0.51367700    0.46129700
Se   16.67372000    2.55740000    0.73776000      0.164611    0.76947800   -0.15657300
Se   15.60300000    5.15898000    7.08860000     -0.314796   -0.18993000    0.24276000
Se   15.50875000    7.24980000   15.76237000     -0.152251    0.12195500   -0.09096500
Se   15.99803000    9.99491000    8.76562000     -0.440437    0.56713700    0.07080100
Se   14.13157000   13.10159000   18.89066000      0.405766    0.01283100    0.71591700
Se   13.72672000   19.05192000    5.42757000     -0.957756    0.09622400    0.15554000
Se   17.57243000   17.78729000    0.22760000     -0.279668   -0.11770300   -0.20739000
Se   21.04365000    1.89493000    8.02010000     -0.083686   -0.66025600   -0.93917300
Se    0.80945000    0.30705000   13.83166000      1.130303   -0.35988500   -0.01794600
Se   20.83607000    6.95293000    9.35272000     -0.828914    0.48180700    0.20390000
Se   21.22496000    7.08980000   17.68684000     -0.194949    0.07477300   -0.56226800
Se   21.31591000   11.00422000    7.21541000     -0.375141    0.25971900   -0.45552100
Se   20.41951000   11.65199000   17.40836000     -0.758134   -1.26081600   -0.68485900
Se   19.04634000   17.12729000    7.70380000      0.463667   -0.29568400    0.47529200
Se   19.53662000   17.13566000   15.79824000     -0.148861   -0.19797400    0.66521200
Se    3.90899000    0.66728000   11.38154000      0.371421    0.22405700    1.24315900
Se    2.31597000    2.08841000   15.31759000      0.968754    0.01952600    0.10270500
Se    0.22965000    7.31000000    8.17188000      0.599451    0.34137000   -0.89411700
Se    1.07672000    9.83605000   14.49570000      0.024300    0.13480400   -1.04451600
Se    3.78249000   14.60951000    5.35524000      0.252575    0.05607600    0.06596000
Se    2.00186000   13.73138000   17.06834000      0.132281   -0.07877700   -0.36052200
Se    0.75864000   16.94355000    8.67897000     -0.760189   -0.41969600   -0.05966500
Se    3.07119000   20.59656000   14.67122000     -0.149082   -0.06281400   -0.06754100
Se    6.53224000    0.90433000    3.65023000      0.922511   -0.12216900   -1.01612700
Se    7.82184000   22.37953000    1.67821000      0.276206    0.97343700    0.67659100
Se    9.98146000    8.89785000    6.52914000     -1.309763   -0.67217200    0.23315700
Se    4.27050000    5.58181000   14.43942000      0.121118   -0.45556400    0.08036900
Se    5.69285000   12.16893000    4.57729000     -0.111149   -0.97149400    0.58101300
Se    9.69493000   13.72883000   13.76997000      0.089335   -0.26715200    0.07623200
Se    8.32472000   17.71750000    4.19771000      0.937639    0.48819000   -1.16361700
Se    7.65728000   16.43646000   14.99796000      0.435151   -0.29114200   -1.07549500
Se   13.77491000    0.77550000    4.14661000     -0.301083   -1.21843000    0.54427000
Se   13.87091000   22.04628000   16.77309000     -0.092603    0.14225200   -1.07275900
Se   11.85418000    9.91856000    5.58399000     -0.202254    1.05998900   -1.25836100
Se   11.92351000    6.56381000   15.08317000     -0.323398   -0.21484300   -0.71466400
Se   13.19994000   12.89194000    5.52401000      0.591047   -1.20821400   -0.52295200
Se   14.12937000   14.66510000   14.28475000      0.262449   -0.19001600    0.76339600
Se   12.37515000   19.39140000    7.42573000      0.256178   -0.98696300   -0.16764100
Se   12.59672000   18.80894000    0.04728000     -0.475737   -0.15613700    0.38068900
Se   20.01398000    2.56092000    5.01554000      0.322893   -0.05312800   -0.35128200
Se   17.13889000    0.51185000   16.41587000      0.563470    0.45608800    0.98998300
Se   19.43177000    5.09204000    6.23876000      0.659250    0.14782600    0.72992300
Se   18.74463000    5.55882000   15.82848000     -0.618086   -0.08028100    1.63322600
Se   19.30750000   11.73074000    4.39008000     -0.297235   -0.79397000   -0.00054300
Se   17.34241000   13.60894000   12.37100000      0.407389   -0.26167800   -0.34868400
Se   17.87406000   17.98105000    5.09481000     -1.267268   -1.51514400   -0.79389600
Se   17.50083000   19.79714000   14.82042000      0.399372    0.61547200   -0.30725800
Se    2.60976000    7.32292000    5.45586000      0.066126   -0.37711700    0.21903100
Se    1.59743000    6.99659000   13.50523000     -0.204732   -0.07657500   -0.28866800
Se    1.62059000   11.19905000    5.57227000      1.262061    0.59438000   -0.36820100
Se    4.12733000   10.14057000   15.33645000      0.000228    0.64131100   -0.38827200
Se    6.35462000   14.28800000    7.98586000     -0.008546   -1.10837100   -1.39187700
Se    3.19141000   17.96472000   17.36032000      0.524565   -0.84554000    1.09984700
Se    1.54402000   19.52952000    7.61451000     -0.222227    0.36139300   -0.23360200
Se    6.45777000   22.21122000   15.28954000     -0.259250   -0.50414400    1.39857200
Se    9.58833000    0.64600000    5.10635000     -1.020305    0.58182200   -0.32841400
Se    7.41302000    1.86695000   17.70585000      0.387521    0.34212600   -0.63412800
Se   12.46356000   12.59166000    9.88385000      0.142739    0.68215500    0.35279700
Se    9.36140000   11.02106000   17.20913000      0.586647   -0.31849000   -0.52904300
Se    9.23318000   13.67317000    7.88396000     -0.649077    0.31921100   -0.15442400
Se   11.42695000   17.28621000   14.21043000      0.062064   -0.13013700   -0.79003700
Se   11.86786000   20.57609000    4.05558000      0.623767   -0.78706300    0.37615000
Se   10.22627000   17.41405000   17.76299000      0.170125    0.42048800    0.67574600
Se   11.48766000    3.56461000    6.78053000     -0.142372    0.29277300    0.06570900
Se   17.49423000    3.22193000   16.05202000      0.045740    0.73945200    0.19239800
Se   16.76613000    8.99237000    5.41614000     -0.323464    0.40212800    0.92599100
Se   16.08401000    8.24991000   12.46485000      0.278639    1.11085500    0.37624300
Se   16.80954000   11.79727000    5.80510000      0.564035    0.00898300    0.23224500
Se   15.02828000   17.09100000   15.59184000      0.074767   -0.73967400    1.02971200
Se   16.69490000    2.42029000    4.68606000     -0.137730    1.26743200    0.39373100
Se   18.34212000    3.96332000   13.23973000     -0.302384   -1.57365900   -1.13846700
Se    1.72436000    2.56569000    5.83587000     -0.419917    0.39076300    0.66112700
Se    0.23206000    4.89681000   15.26247000      0.137647    0.26507200    0.24712300
Se   18.98339000   13.05554000    8.56286000      0.382480   -0.06086800    0.48497300
Se   21.26780000   12.59066000   13.56396000      0.039242    0.04332800   -0.17707500
Se   21.52007000   14.55361000    6.64708000     -0.060864    0.13255000    0.34009700
Se   20.28139000   18.88280000   13.18332000     -0.225277   -0.14780700   -0.59819900
Se   20.19319000   19.40973000    9.04436000     -0.074585   -0.80874800    0.10235700
Se   20.86692000   20.83563000   15.95084000      1.630133    0.20254200   -0.65358400
Se    3.42811000    0.58966000    4.45420000     -0.278670    0.06489100   -0.40992900
Se    6.67064000    2.45587000   15.28089000      0.485253    0.72680300    0.03692600
Se    2.18046000    6.70287000    0.08118000     -0.414744   -0.12597100    0.67029600
Se    4.91915000    8.20224000   12.44259000     -0.195436    0.59080300    1.15627200
Se    1.25278000   13.47232000    2.40006000      1.250670    0.02798300   -0.59800100
Se    5.17714000   14.07821000   14.82355000     -0.440597    0.99754900    0.34468800
Se    4.60492000   18.28390000    2.44964000      0.126207    0.23782500    0.80582300
Se    4.60178000   18.28223000   12.30081000      0.292620    0.46844700   -0.92532900
Se   10.27002000    0.65449000    2.40277000     -0.482778    0.28211000   -0.09571800
Se   11.19415000    0.58356000   17.20343000     -0.740186   -0.87548800   -0.36241300
Se    9.33605000    7.05568000    2.37207000      0.006273   -0.04267500   -0.30484900
Se    7.57372000    8.36315000   15.84949000     -0.192296   -0.34908000    0.22649100
Se   10.22680000   10.74252000    3.38448000     -0.107645    0.86949700    0.18799800
Se    9.87422000   10.59568000   12.15275000     -0.453165    0.22169500   -0.01342600
Se   10.01253000   19.45762000    1.87804000     -0.162491   -0.12474000    0.32103900
Se   15.11799000   18.37059000   12.68801000     -0.074583   -0.03954700   -0.29260100
Se   14.42148000    3.06199000    6.06845000      0.859224    0.69869300   -0.52776500
Se   14.62740000    1.43110000   15.59863000     -0.335928    0.19591200   -0.11468000
Se   15.35730000    6.33510000    3.44988000     -0.355811    0.13995400   -0.06350400
Se   12.55656000    8.23952000   10.91420000      0.424194   -0.22372500    0.86389100
Se   15.84971000   10.62702000    2.81532000      0.152437   -0.05280700   -0.20059900
Se   17.10867000   14.38334000   16.40220000      0.062608   -0.47210000    0.18504100
Se   15.65507000   15.69000000    3.82526000     -0.910309    0.50792000    0.26733300
Se   14.58957000   22.29922000   12.95704000      0.230669   -0.70856700   -0.20169400
Se    0.90259000   21.30747000    5.79204000      0.445203    0.31978900    0.58237300
Se   19.82167000   22.30798000   13.05399000     -1.156589    0.57513500    0.11171400
Se    0.11605000    7.54004000    3.39194000     -0.418416   -0.04880400   -0.20179100
Se   19.74035000    8.59741000   14.20386000      0.383191    0.24685000   -0.60267000
Se    1.59795000   13.83425000    5.65709000     -0.287304    0.52361900    0.36537500
Se   22.44511000   15.84941000   14.95829000      0.280982   -1.76210800   -0.77890300
Se   21.60652000   18.47483000    4.67050000     -0.670191   -0.56326900   -0.06308100
Se   21.69986000   21.21090000   10.06952000      0.455629   -0.64344000    0.54411000
Se    3.31837000    4.92188000    3.22263000      0.099682    0.19758700    0.07259100
Se    2.09232000    4.47382000   11.83654000     -0.310861    1.09963900   -0.29730900
Se   20.96149000   10.62666000    2.77759000      0.317650   -0.41076000    0.76357700
Se    1.94471000   10.35778000   11.67214000     -0.104053   -0.59755900    0.70167900
Se    0.29071000   15.61920000    0.21064000     -0.545904    0.78189200   -0.86621900
Se    3.24439000   15.65402000   12.52193000      0.554805   -1.17894000    1.00037600
Se    1.89914000    0.48493000    2.36576000      0.248107   -1.62679100    0.63265500
Se    5.69344000   19.98391000   15.56532000     -0.210431   -0.56950600   -0.35041400
Se    9.57333000    4.54220000    4.84922000     -0.441219   -0.01101200   -0.13619800
Se    9.57290000    2.61744000   14.11286000      0.271748   -0.73606600   -0.25486100
Se    6.95289000    6.41492000    4.89411000      0.194844   -0.25870100   -0.79481800
Se    8.24349000   12.35244000   15.40424000      0.303994    0.16682200   -0.90422300
Se    5.64351000   14.49424000    2.45451000      0.047281    0.25986800   -0.80816400
Se   10.82617000   15.06911000   10.96924000      0.038262   -0.32186700    0.59229700
Se    7.36921000   20.63883000    6.21662000     -1.670017    0.04239600   -0.32151900
Se    9.06028000   19.76254000   15.01426000     -1.643184    0.27638900   -1.55947600
Se   14.05617000    2.26159000    2.53150000      0.015467    0.81102000   -1.84364800
Se   10.92788000    4.68309000   11.85821000      0.446540    0.30187600    0.23573400
Se   14.05282000    8.63821000    3.02947000      0.055755   -0.63398600   -0.47030700
Se   10.97435000    9.73414000   14.06278000      0.086181   -0.00218600    0.10736900
Se    9.10941000   14.32169000    4.46904000      0.725837   -1.14063100    0.49778000
Se   14.41114000   14.93058000   11.06128000      1.542049   -1.21821400   -2.62440200
Se   14.35605000   20.15277000    1.97061000      0.677518   -0.14133900   -0.34329700
Se   13.70650000   20.02559000   13.98948000     -0.906920    0.66498000   -0.37801200
Se   18.29707000    6.30319000    0.26300000     -0.048620   -0.51948900    0.83363100
Se   14.95793000    4.49220000   13.44948000      0.084094    0.30598300    0.82157900
Se   18.25498000    7.64199000    4.01457000      0.653587    0.29163500   -0.91461600
Se   21.07045000   13.87596000   11.45220000      0.598854   -0.53439500    0.61069200
Se   21.11392000   14.62780000    3.37433000     -0.130070    0.68229400    0.32619500
Se   17.11418000   17.05561000   11.45963000      0.513104   -0.00353800    0.39258800
Se   16.75069000   21.26018000    5.14540000      0.558958   -0.37741000   -1.08540000
Se   16.89761000    1.57918000    9.93599000      0.729847   -0.05495700   -0.07886700
