384
22.54784000 22.54784000 18.93360000
Ge    4.66886000    4.83272000    9.90673000     -0.031655   -0.78472500   -0.26266300
Ge    4.30751000    7.17746000    1.49886000     -0.180665   -0.39345800   -0.25690100
Ge    4.01068000   10.99487000    7.03527000      0.018715    0.23116400   -0.16394100
Ge    6.76422000   10.50933000   17.90094000     -0.218777   -0.33087600   -0.07805600
Ge    4.56897000   14.43273000    9.88262000     -0.048091   -0.40766900    0.11763500
Ge    8.36980000   17.90273000    1.05617000      0.157445   -0.39528300    0.16214100
Ge    7.18638000   19.78223000    8.66538000      0.666508    0.29732500   -0.18912200
Ge    5.41728000    0.05436000   17.71553000      0.009796    0.01715600   -0.08430100
Ge    8.26357000    6.58364000    9.70054000     -0.169015    0.18967900   -0.38477100
Ge   11.62478000    5.24540000   18.04330000      0.712422   -1.10231200   -0.26271600
Ge   11.32125000    7.70952000    8.81724000      0.199942    0.01243200   -0.81023300
Ge   10.20388000   12.17778000    0.23089000     -0.720852    1.10484600    0.84684000
Ge    9.51532000   16.84972000    8.88758000      0.305797    0.29635600   -0.47349900
Ge   11.79355000   15.53518000    0.66187000      1.037592    0.00382300   -0.50603400
Ge    9.42337000   22.48519000   10.59288000      1.273793    1.04441300   -1.37899700
Ge   15.11980000   21.34435000   18.65038000      0.559786    0.00981100    1.18164200
Ge   18.28210000    4.93739000   10.22482000      0.592537    0.70334500   -0.10278000
Ge   18.44572000    8.06168000   17.11136000      0.246119    0.04587600    0.46962200
Ge   18.69255000   14.75770000   10.54349000     -0.468558    0.47234600    0.68176600
Ge   17.29940000   11.33986000   18.09939000      0.545483    0.13914400    0.01250500
Ge   13.48038000   15.98703000    8.97534000     -0.144911    0.27231900   -0.15675400
Ge   16.90323000   14.43096000    0.14205000     -0.169336    0.21543900   -0.75589300
Ge   16.10158000    4.17949000    9.32612000     -1.080045   -0.35169400    0.57737800
Ge   18.68906000    3.55585000   18.38869000     -0.001013    0.19026600    0.37332200
Ge    0.84407000    4.10108000    9.57688000      0.500250   -0.21814000   -0.27598700
Ge   21.76299000    4.28460000    2.99749000     -0.590676    0.19702700   -0.54826400
Ge    0.24588000    9.97475000    8.90452000      0.205969    0.16401000    0.78667400
Ge   21.92424000    9.29418000   18.37528000     -1.146113    0.37366400   -0.14498700
Ge   21.05532000   15.70540000    8.79806000      0.151127    0.19035700   -0.34178900
Ge    3.85369000   15.07039000   18.13492000     -0.439754    0.06207300   -0.43038900
Ge   19.08797000   22.21326000   10.56568000     -0.135764    0.44606000    0.42505100
Ge   21.58571000   20.27571000    2.86861000      0.107188    0.05874700   -1.14809000
Ge    4.06250000    7.14806000    7.60061000     -0.907706    0.43332000   -0.22756500
Ge    1.88057000    7.08235000   16.57452000     -0.460026   -0.02164400   -0.11907300
Ge   20.40946000    8.95958000    4.75474000      0.037702    0.50500400   -0.54152300
Ge    3.31971000   12.58202000   15.33753000     -1.111164   -0.01152300   -0.44123100
Ge    4.62469000   19.18740000    5.02743000      0.223104   -1.12325600   -0.46998200
Ge    0.83450000   18.08155000   18.41270000      0.127800    0.27176200   -0.18772500
Ge    4.29084000   19.39387000    9.98810000     -0.002382   -1.36442200    0.52541000
Ge    1.68473000    1.66458000   18.31978000      0.428097   -0.19298100   -0.40798800
Ge    9.38227000    2.13063000    7.45439000      0.256826   -0.12603500   -0.02751800
Ge    7.32004000    5.90073000   16.86443000      0.540600    0.77507300   -0.74937500
Ge    7.65906000   10.77583000    3.97760000      0.648064   -0.44929100   -0.16044700
Ge   10.24359000    8.20930000   16.36618000     -0.287484   -0.35322600    0.35690100
Ge    6.86832000   16.46638000    8.61274000      1.860285    0.75428200    0.76345900
Ge   10.14075000   15.67719000   15.71029000     -0.594023   -0.51371800   -0.07899600
Ge   10.54094000   21.12295000    6.22808000     -0.038582   -0.08836700    0.49776100
Ge   10.56318000   22.03851000   14.18804000     -0.423869   -0.14427000    0.34823800
Ge   12.67534000    7.75597000    4.84927000     -0.910692   -0.97618700   -0.62114700
Ge   15.05120000    4.67946000   16.08101000      1.006295    0.16582100    0.00261000
Ge   14.07297000   10.28382000    6.88070000      0.377201   -0.40763300    0.58904900
Ge   15.39435000   12.21090000   15.40006000      0.685937   -0.39764900   -0.11533500
Ge   12.91979000   15.13492000    5.57307000     -0.694136    2.69961700   -0.23227300
Ge   15.08990000   18.22230000    0.34049000     -0.887570   -0.89100300   -0.41127300
Ge   14.81058000    0.31817000   10.05535000     -0.999399   -0.35395700   -0.71037700
Ge   17.12313000   22.27341000   14.07780000     -0.069286   -0.34506700   -0.95953200
Ge   20.76467000    4.27790000    8.66452000     -0.103413    0.79649600    0.37762700
Ge   19.74141000    5.78314000   13.74231000      1.417099    1.03085600    0.01374300
Ge   18.66165000   10.79897000    7.63571000     -0.306532   -1.11707500   -0.16683400
Ge   20.82506000   15.07545000   16.83236000     -0.065885    0.50107900   -0.27848300
Ge   19.66808000   15.58623000    5.29678000     -0.267001    0.19593400    0.61393800
Ge   17.43613000   18.18285000   16.67431000     -0.199565   -0.91979000    0.24875100
Ge    1.00984000    0.98209000    7.78826000     -0.387557   -0.13077200   -0.89475100
Ge   18.88752000   21.23614000   16.95942000     -1.266258   -0.46906800    0.83870100
Ge    6.99932000    3.32467000    6.84641000      0.753834    0.15902800   -0.35196100
Ge    3.55377000    2.90808000   12.94417000      0.897231   -0.43496600    0.75873300
Ge    0.25567000    9.28551000    5.93391000     -0.231056   -1.13567100    0.05727800
Ge    2.51623000    7.78158000   11.10441000     -0.644337    0.55272200    0.35101500
Ge    0.89501000   15.77920000    3.68724000     -0.145463    0.02859000    0.22122000
Ge    2.56216000   18.21190000   14.94704000      0.102328   -1.22833500    0.03770200
Ge    3.54125000    0.27983000    9.02698000      0.067818    0.01244500   -0.65207800
Ge    7.82127000   17.70476000   16.99812000      0.062789    1.32448700   -0.25717800
Ge    7.61936000    3.52334000    2.87637000     -0.035651    0.24950600   -0.02140400
Ge   10.12931000    2.68271000   16.57043000     -0.804154    0.74917800    0.71464900
Ge    8.62154000    8.24560000    4.35645000     -0.235910    0.54304600   -0.03393400
Ge    7.03420000    9.77674000   12.85151000      0.848397    0.19771300    0.24476900
Ge    6.66745000   14.33463000    4.83401000     -0.261142    0.75259400   -0.18818200
Ge   11.65388000   11.94665000   15.40536000      0.204020   -0.34700100   -0.24387700
Ge    8.10228000   20.35571000    3.57717000      0.134362   -0.02046400   -0.09883800
Ge    9.44125000   16.46774000   12.61505000     -0.344906    0.51646600    0.67487200
Ge   11.72163000    1.79288000    5.17411000      0.073938   -0.25174200   -0.58255000
Ge   12.64864000    4.08678000   13.90867000     -0.806667    0.58615200    0.13249400
Ge   17.26936000    4.90574000    5.21300000     -0.925436   -0.70921800   -1.39116600
Ge   13.88527000    8.49289000   13.84777000     -0.934335   -0.05620800    1.00726200
Ge   15.05207000   12.96820000    3.63537000     -0.688437    0.29570600    0.35822200
Ge   13.51497000   16.23247000   12.59542000     -1.569254    3.04604000    1.54595400
Ge   11.56481000   17.98165000    3.85017000      0.210561    0.22586500    0.39609800
Ge   10.71154000   19.80587000   16.50859000      2.373465   -0.23422800    1.94973700
Ge   22.21261000    4.31838000    5.57398000      0.209896   -0.55637900    0.30248000
Ge    0.00024000    2.55695000   13.69268000     -0.855048    0.73515400    0.69855900
Ge   18.89648000    7.54898000    6.75273000     -0.281101    0.42494200    0.66778500
Ge   17.51358000   10.58995000   12.61539000      0.520734    0.19849200    0.57924900
Ge   20.59197000   16.50995000    1.29524000      0.770740    0.98596900    0.85561100
Ge   18.54996000   15.30374000   13.86647000     -0.089435    1.06499100   -0.03241300
Ge   19.08452000   19.81834000    5.63845000      1.038374    2.94094100    0.16646300
Ge   21.92767000   21.25642000   12.85314000     -0.038175   -1.52717100   -0.79805300
Ge    4.38311000    2.65371000    2.92442000     -0.130764   -0.27706600    0.20572000
Ge    6.12623000    0.90106000   13.13749000     -0.770665    0.91382300   -0.24037200
Ge    4.80519000    7.72065000    4.20548000     -0.776476   -0.14080700    0.22693900
Ge    6.69479000    5.34466000   14.41965000     -0.047187   -0.77201400    0.23364900
Ge    4.14151000   12.32894000    1.42075000      0.429984    0.12102600   -0.03489000
Ge    4.39363000   10.82240000   12.72647000     -0.923379    0.55274200   -0.47778500
Ge    4.63441000   21.67281000    6.73264000      1.014869    0.18031200   -0.62766700
Ge    6.72974000   19.66343000   12.58667000     -0.083254   -0.40263300   -0.07899900
Ge   11.11961000    3.65566000    3.18646000      0.708808   -0.09213500   -0.70595900
Ge    8.21227000    4.20999000   12.41606000     -0.101122   -0.12794000    0.09536700
Ge   11.41458000    7.98479000    1.32623000      0.770567   -0.08545200    0.17346200
Ge   10.45946000    7.10795000   12.72489000      2.680420   -0.12147700    0.26159000
Ge    8.27221000   13.86730000    1.35135000     -0.229615   -0.64245600    0.02623600
Ge    8.69828000   14.00079000   10.30206000     -0.746283   -0.81058700    0.28317100
Ge   11.80185000   21.51734000    1.30535000     -0.189716   -0.08401400   -0.40729700
Ge   11.23151000   19.87179000   12.71883000      0.177329   -0.60597300    0.03983000
Ge   22.17400000    0.49925000   17.17699000     -0.333932   -0.80087500   -0.72403700
Ge   12.67969000    2.40679000   10.76153000     -0.216566   -0.38061100   -0.43626600
Ge   16.70842000    7.84173000    1.79344000      0.168793    0.06335800   -0.44968800
Ge   15.01375000    8.26348000   10.34812000     -0.067181   -0.59081500   -0.79606900
Ge   17.89683000   12.29891000    2.26064000      0.292961   -1.79649100   -0.33726600
Ge   16.89062000   16.00308000    8.62921000     -0.097397    0.20274800    0.34799600
Ge   16.81640000   20.51781000    2.65090000     -0.051869   -1.23993500    2.61604400
Ge   13.85237000   19.26575000   10.10900000      0.763150    0.12471800   -0.06326100
Ge   21.56918000    1.84049000    2.07166000     -0.711639   -0.09020800    0.19263800
Ge   21.20096000    1.13407000   10.30081000      0.324301    0.56077200    0.53279300
Ge    1.00691000    8.83496000    1.39056000      0.612535   -0.67246500    0.81131500
Ge   21.71361000    9.26778000   12.88364000     -0.597338   -0.60740400    0.15200600
Ge   20.64711000   12.95471000    1.73917000     -0.179525   -0.76199000   -0.98091300
Ge    0.96795000   14.75401000   10.34710000     -0.718004   -2.16983900   -1.28195200
Ge    1.38099000   19.14040000    4.72169000      1.020921   -0.55193500   -0.83314100
Ge   18.69994000   18.99785000   11.32811000     -0.038229   -0.23142900   -0.14469600
Se   20.89471000    0.24258000    0.37990000     -0.062696    0.08766600    0.02968400
Se    1.46039000    1.70480000   10.22247000     -1.050231    0.42668500   -0.43114500
Se    2.89451000   10.04208000    2.87033000     -0.711097   -0.16946500   -0.05932400
Se   22.38143000    7.12959000   11.52651000     -0.011595   -0.03732900    1.06375600
Se   22.16701000   12.43642000   18.54671000      0.651186    0.57130300    0.87762900
Se    1.64865000   12.53910000    9.07536000      0.277368    0.57058600    0.26207800
Se    2.51483000   16.86553000    5.55066000      0.655842    0.85454000   -0.16939900
Se    1.55854000   16.79300000   11.22251000      0.230253    1.57393700    0.69292600
Se    5.75237000    2.95925000    0.89124000     -0.182455   -0.46737300   -0.05166700
Se    6.41073000    3.06961000   11.05273000     -0.241603    0.45854800   -0.01008600
Se    6.67525000    6.09644000    1.92334000      0.489516   -0.38442700    0.15939800
Se    8.18150000    6.89575000   12.35017000     -1.606256    0.22842600    0.17209300
Se    7.84970000   10.61420000    1.20571000      0.004358   -0.16834500    0.56383000
Se    6.50607000   12.96988000   13.33231000     -0.226332   -0.50656300    0.08235500
Se    5.82199000   20.30773000    2.30435000     -0.161458   -0.15894700   -0.48406100
Se    8.64922000   18.82706000   10.87178000      0.052789   -0.34402800    0.13272000
Se   12.84972000    1.25431000    0.48494000      0.409895    0.45917100    0.61924900
Se   11.93161000    1.70948000   13.29364000     -0.096380    0.22513600    0.02508800
Se   12.48117000    7.52112000   18.00056000      0.116615    0.89511600    0.12679200
Se    9.54382000    9.25922000    9.89715000     -0.230828   -0.11579300    0.06268900
Se   12.91667000   13.12970000    2.21804000      0.375135    0.46061800   -0.46529800
Se   11.77090000   10.95675000    8.53204000      0.378835   -0.39618800   -0.35220900
Se   13.91481000   16.96809000    2.32053000     -0.008243   -0.55543500    0.17201200
Se   11.93719000   17.51756000   10.32875000      0.612434    0.71538900   -0.00774100
Se   19.03087000    3.53827000    2.66726000      0.413785   -0.53524900    0.85854200
Se   16.15722000    1.86982000   12.26323000      0.193817    0.24561600    0.19756400
Se   15.90073000    8.28988000   17.98313000      0.005586   -0.46755900   -0.24331900
Se   17.45191000    6.07630000   12.30873000      0.456907   -0.84006400   -0.04551200
Se   18.60564000    9.52342000    0.54016000     -0.175678    0.43088700   -0.47598700
Se   17.81070000   14.19493000    6.90398000     -0.251316   -0.59344900   -0.73462100
Se   20.41210000   19.19583000    0.46766000      0.102336    0.11975200    0.60771800
Se   15.98637000   18.38188000    8.79825000     -0.625739    0.76780100    0.45277600
Se    1.57092000    2.67487000    1.71236000      0.358193    0.46480000    0.12972000
Se    5.49174000    7.16857000   10.44157000      0.032550    0.25828400   -0.60313800
Se    5.30746000    9.94036000    2.33133000      0.175053    0.85141800   -0.90098900
Se    4.85289000   11.75014000   10.16988000     -0.473514    0.35331500   -0.13974600
Se    2.67751000   15.40982000    1.55831000      0.397025   -0.47439000    0.10875500
Se    1.99886000   13.22834000   13.01290000      0.827119    0.67601600    0.21413300
Se    3.11311000   21.17421000   18.69288000     -1.025540    0.20218300   -0.82906900
Se    5.67908000   21.39049000   10.05473000      0.599565   -0.55344600    0.00862500
Se   12.32244000    5.44802000    1.55929000      0.115301   -0.03949700    0.55668700
Se    6.54260000    5.49117000    8.05462000     -0.732627   -0.57142300    0.02246800
Se   11.78899000   10.59049000    0.91456000      0.285438   -1.13996300    0.57370700
Se    7.07570000   11.19063000   10.70280000      0.616316    0.24953600   -0.17190100
Se    9.84782000   15.69280000    2.11129000     -0.409593    0.66233100   -0.11470200
Se   13.16728000   12.90143000   12.80696000     -0.944112   -0.31450200    1.14248800
Se    9.74297000   21.28880000   18.42440000      0.323512    0.68484000   -0.09531600
Se    8.28168000   22.27221000   12.55676000     -0.066316   -0.57894900    1.17338500
Se   15.58369000    4.61322000    0.44142000      0.032723   -0.36661900   -0.32040500
Se   16.96305000    6.93236000    8.80636000      0.353528   -0.09262600    0.08174700
Se   14.87175000   10.82994000   18.84571000     -0.069093   -0.10763400   -0.02090200
Se   14.89708000   11.30532000   12.09424000     -0.161673   -0.21475400    0.36169700
Se   17.58993000   14.52820000    2.93704000      0.741424    1.56139500    0.30221900
Se   15.39380000   12.38905000   10.08184000      0.604082   -0.20064800   -0.56918100
Se   17.05539000   22.10559000    1.11204000      0.901485    1.86472700   -1.84133500
Se   14.80920000   21.14036000    7.80151000      0.334553   -0.21545800    0.83481400
Se   21.71625000    5.10081000    0.66512000     -0.155306    0.36049700    0.12573300
Se   20.99012000    3.13569000   11.83198000     -0.174335    0.35611900   -0.24662800
Se   20.12535000    7.00235000    1.98731000      0.584137   -0.57849500   -0.42757900
Se   20.78394000   10.34788000   10.80074000      1.075099    0.81764500    0.12976300
Se   19.52589000   14.66393000    0.17495000     -1.099837   -0.66649700   -1.04926700
Se   20.70014000   16.31628000   12.51386000     -0.356201    0.26996500   -0.44731800
Se   20.80345000    0.53949000    4.01506000      0.087129   -0.46676000    0.30832400
Se   17.05548000   20.78827000   10.94329000      0.211262   -0.25005300    0.63248800
Se    2.78855000    4.34270000    7.94186000      0.185450    0.09836800    0.53425800
Se   22.08167000    3.54369000   17.12925000     -0.528827    0.10004600   -0.28494900
Se    2.83809000    9.52582000    8.63320000      0.143767   -0.83474200    0.12842200
Se    1.41913000    9.50037000   17.04275000      0.029774    0.56295200   -0.46444100
Se    4.80412000   17.29909000    8.14684000     -1.913285    1.60221900    0.18847100
Se    0.08400000   18.02355000   15.65396000     -0.040956    0.64286600    0.42430300
Se    1.62276000   19.80009000   12.84863000     -0.235105   -0.12094700   -0.35482000
Se    1.00011000   20.78150000   17.27230000      0.656433    0.31613900    0.89458800
Se    5.48587000    3.76598000    4.91232000      0.093843    0.73149800   -0.12629600
Se    5.51482000    5.25518000   18.28562000     -0.127814    0.41196400    0.84294300
Se    5.62662000    8.76509000    6.35908000     -0.067635    1.19004200    0.22114300
Se    4.22798000    7.74146000   16.08956000      0.757981   -0.61526900    0.19728900
Se    6.59848000   15.45189000   11.01744000      0.615623    0.44710100    0.50228000
Se    6.35821000   16.18189000   18.26906000     -0.368642    0.51176000    0.58340500
Se   10.19837000   18.09347000    6.53933000      0.416271    0.12444000    0.45172500
Se    6.64139000   20.18172000   18.67762000     -0.228459   -0.19979300    0.14968800
Se    9.90928000    2.36755000    9.94300000      0.089737   -0.40600700    0.31799500
Se   13.04824000    3.04131000   16.41512000     -0.744286    0.65953600    0.33257000
Se   13.51783000    7.64125000    7.08300000      0.758290    0.18245100    1.12432000
Se   13.70859000   10.33302000   15.89603000     -0.379612    0.20527000    0.03295200
Se   11.63628000   14.80910000    7.78645000      0.052370    0.35754300    0.28771500
Se   14.24514000   16.04538000   17.80441000      0.654237    0.59745400   -0.65973800
Se   12.36811000    0.20569000    6.89345000     -0.154323   -0.28657700    1.23223400
Se   15.16838000   19.52152000   17.00150000     -0.270984    0.37458000    0.65215000
Se   13.80489000    4.58056000   10.27672000      0.514227    0.05298600   -0.36710100
Se   20.39761000    2.39302000   15.34251000      1.000243   -0.26353000    0.05599300
Se   18.60201000    9.79806000   10.29838000     -0.652625   -0.30019600   -0.29912900
Se   17.29116000   10.19682000   15.53880000     -0.147420    1.25272400    0.20023800
Se   14.84147000   16.44839000    6.78277000      0.039084   -0.08332200   -0.13107800
Se   19.41775000   13.40563000   15.21768000      0.362990   -0.27469500    0.45801700
Se   18.69918000   20.96068000    8.16305000      0.140264   -0.11238800   -0.59732800
Se   18.97621000   18.78670000    2.66701000     -0.553186    0.58565100    0.06070800
Se    5.65244000    1.51605000    7.50810000     -1.111789   -1.23983400    0.75570900
Se    3.80563000    2.49879000   17.44950000     -0.106141    0.08841900   -0.55788000
Se    7.57854000    8.53932000    8.25838000      0.772979    0.35355900    0.18575200
Se    4.57345000    9.41357000   18.73098000      0.038562   -0.33721700   -0.07835900
Se    6.55255000   17.06765000    5.34816000     -1.193545    0.03428400    0.94890300
Se    5.68624000   12.85500000   17.92834000     -0.793235   -0.70967400    0.50448600
Se    2.03976000   20.48900000    9.90955000     -0.237155   -0.32973100   -0.37940400
Se    1.32247000   19.27350000    2.05102000      0.014439    0.29233200    0.74939500
Se    8.59256000   22.06817000    8.44320000     -0.154821   -0.90195200   -0.02832600
Se    9.70970000    3.57989000    1.20799000     -0.724716   -0.64278000    0.19245600
Se   10.15105000    5.44575000    8.65103000      0.275838    0.12539200    0.07778700
Se    9.38854000    6.14785000   18.26939000     -1.176349    0.70273600   -0.50743800
Se    9.64854000   12.18354000    5.82701000     -0.672913    0.29411300   -0.91638800
Se    7.92451000   14.54610000   17.77235000      0.253709   -0.12606700    0.13653900
Se   11.66281000   21.75394000   11.09312000      0.344889   -0.05963100   -0.42986500
Se   11.53242000   13.61527000   17.68903000     -0.006912    0.96716600   -0.37273900
Se   15.29077000    1.21248000    7.33637000      0.144763   -0.64541400    0.68229800
Se   16.69220000    2.54538000    0.80186000      0.126922    1.04570400   -0.29871200
Se   15.61183000    5.10476000    7.10645000     -0.502405    0.10370000    0.07670600
Se   15.50497000    7.26154000   15.83544000     -0.309280   -0.33550300   -0.28814500
Se   15.99484000    9.92430000    8.75576000     -0.350719    0.54443700    0.06153900
Se   14.15399000   13.07226000   18.87065000      0.195083    0.27146300    0.75335400
Se   13.70043000   19.06483000    5.44912000     -0.747642   -0.01479700   -0.00525800
Se   17.53857000   17.79367000    0.25750000     -0.027540   -0.16930800   -0.31883900
Se   21.05624000    1.95961000    7.99938000     -0.096261   -1.01627100   -1.07500500
Se    0.79035000    0.25976000   13.83036000      0.992593    0.57891600    0.13519800
Se   20.87486000    7.00562000    9.36507000     -1.298234    0.28574900    0.41548000
Se   21.22276000    7.13895000   17.63275000     -0.175750   -0.17586400   -0.58648800
Se   21.29625000   10.99989000    7.21430000     -0.229643    0.23210100   -0.27931900
Se   20.39056000   11.70255000   17.38115000     -0.826117   -1.43332800   -0.63854500
Se   19.05689000   17.17135000    7.69171000      0.285675   -0.57712100    0.57961400
Se   19.54326000   17.15014000   15.79728000      0.044353   -0.32968700    0.68228800
Se    3.84141000    0.59458000   11.36103000      0.528215    0.47953400    1.77714800
Se    2.35100000    2.11783000   15.30989000      0.741746   -0.07155200    0.12160200
Se    0.23368000    7.34353000    8.19878000      0.994033    0.39791000   -1.17778800
Se    1.11738000    9.83007000   14.44905000      0.026471    0.09426900   -0.95335500
Se    3.81282000   14.56073000    5.30843000      0.672146    0.30461400   -0.06798000
Se    1.94783000   13.70877000   17.05339000      0.663676    0.06843600   -0.29413700
Se    0.74537000   16.93112000    8.66971000     -0.646076   -0.34449700   -0.19086500
Se    3.04100000   20.55623000   14.63465000      0.146406    0.64883500    0.17055000
Se    6.58095000    0.92146000    3.66561000      0.951249   -0.09259100   -1.13140800
Se    7.81426000   22.41378000    1.68293000      0.068295    0.89430200    0.76136000
Se    9.98048000    8.84519000    6.53145000     -0.988728   -0.43697400    0.22265000
Se    4.24777000    5.55003000   14.45288000      0.322949   -0.45677000    0.07466600
Se    5.66175000   12.15520000    4.64600000     -0.050033   -1.01106800    0.39359100
Se    9.62547000   13.76751000   13.75479000      0.300213   -0.34406600    0.04651800
Se    8.33934000   17.76605000    4.16147000      0.607007    0.21298000   -0.85026400
Se    7.63736000   16.45785000   14.98321000      0.418515   -0.30698200   -0.92921800
Se   13.81062000    0.78693000    4.15634000     -0.483986   -1.05104600    0.47666100
Se   13.85214000   22.04747000   16.73007000      0.102198    0.14372900   -0.90664600
Se   11.86130000    9.94726000    5.58235000     -0.341781    0.60129400   -1.12704700
Se   11.96092000    6.59279000   15.02581000     -0.471296   -0.20049000   -0.57945800
Se   13.24741000   12.93225000    5.54211000      0.753251   -2.56710200   -0.47482600
Se   14.14621000   14.70063000   14.28328000      0.218680   -0.60251600    1.19472200
Se   12.40949000   19.38784000    7.42221000     -0.135643   -0.83930400   -0.08528900
Se   12.61905000   18.79926000    0.07761000     -0.614629   -0.17844000    0.33492600
Se   19.95463000    2.59338000    4.99605000      0.487233   -0.21300700   -0.38975500
Se   17.17419000    0.50651000   16.40701000      0.492023    0.35117400    0.58984200
Se   19.46968000    5.11008000    6.21048000      0.396240    0.17178500    0.62403900
Se   18.72226000    5.55885000   15.93803000     -0.299322    0.04554000    0.86425700
Se   19.30148000   11.71917000    4.38723000     -0.269457   -0.77862100   -0.23881100
Se   17.30392000   13.67296000   12.42779000      0.556780   -0.31150600   -0.51532500
Se   17.87592000   18.03515000    5.12362000     -1.707376   -2.24675800   -0.89434300
Se   17.51274000   19.82477000   14.88227000      0.408249    0.34627100   -0.31690800
Se    2.59518000    7.31327000    5.47749000      0.216005   -0.39585900    0.14696000
Se    1.61057000    6.98226000   13.52323000     -0.194137   -0.02816300   -0.30277200
Se    1.55918000   11.26005000    5.57839000      1.287795    0.41168000   -0.36829700
Se    4.08196000   10.15452000   15.31819000      0.001837    0.55993400   -0.29670600
Se    6.32323000   14.30733000    7.98390000     -0.202736   -1.90587700   -1.49734700
Se    3.25181000   17.97092000   17.36316000      0.080508   -0.77182300    0.95622500
Se    1.53810000   19.56384000    7.63271000     -0.151947    0.29033900   -0.17253000
Se    6.52079000   22.14856000   15.30795000     -0.241152   -0.28332700    0.99257500
Se    9.53567000    0.60460000    5.06065000     -0.383745    0.80861200   -0.47171700
Se    7.41106000    1.82340000   17.68236000      0.341041    0.43195000   -0.57981600
Se   12.52178000   12.56019000    9.89460000     -0.200966    0.29263800   -0.02444300
Se    9.44428000   11.00838000   17.24588000      0.169291   -0.66374700   -1.22205700
Se    9.19974000   13.62208000    7.81800000     -0.570713    0.33342000    0.22494400
Se   11.41376000   17.27383000   14.23136000      0.217165   -0.16107600   -0.85560600
Se   11.85792000   20.60169000    4.08548000      0.787796   -0.66778100    0.19635600
Se   10.31613000   17.36797000   17.80627000     -0.214905    0.60743500    0.38534300
Se   11.46808000    3.62282000    6.78846000     -0.193279    0.20266000    0.14729500
Se   17.51546000    3.28223000   16.09420000     -0.178000    0.57885000    0.07348100
Se   16.77314000    9.02176000    5.42553000     -0.228472    0.31668700    0.78253800
Se   16.09072000    8.25182000   12.55236000      0.381043    0.91709200   -0.15961200
Se   16.85724000   11.85129000    5.81856000      0.424997   -0.15066500    0.19048900
Se   15.02800000   17.19008000   15.62319000      0.077135   -1.21434200    0.95667700
Se   16.67853000    2.42718000    4.71628000     -0.114346    1.08739900    0.27584200
Se   18.33050000    3.89949000   13.27845000     -0.436316   -1.38489900   -1.09716100
Se    1.65402000    2.58932000    5.79554000     -0.375201    0.42457700    0.59771400
Se    0.20020000    4.95366000   15.30855000      0.217472    0.31583100    0.04084300
Se   18.98223000   13.03491000    8.60494000      0.168863    0.37299700    0.00624300
Se   21.31362000   12.59486000   13.60079000     -0.021390    0.18183900   -0.34516200
Se   21.53014000   14.60172000    6.61404000     -0.178489    0.07083900    0.22340100
Se   20.26962000   18.87017000   13.21474000     -0.024035   -0.20294400   -0.32752300
Se   20.23949000   19.42077000    8.99766000     -0.275502   -0.43249400    0.07688100
Se   20.87110000   20.82607000   15.95911000      1.761248    0.15346600   -0.70430900
Se    3.42771000    0.55546000    4.43314000     -0.320805    0.04228400   -0.47046900
Se    6.71231000    2.46345000   15.26292000      0.262419    0.55861100    0.04063600
Se    2.17422000    6.73975000    0.05730000     -0.253863   -0.24595600    1.10285800
Se    4.90705000    8.19009000   12.46977000     -0.097863    0.15969800    0.53764700
Se    1.23962000   13.51744000    2.36364000      1.183964   -0.12794400   -0.44099400
Se    5.13021000   14.02223000   14.85839000      0.342625    1.42176600    0.08855200
Se    4.64115000   18.25552000    2.46761000      0.070519    0.30989600    0.75309000
Se    4.59523000   18.22570000   12.27762000      0.460895    0.62603200   -0.78641000
Se   10.28539000    0.68244000    2.45111000     -0.426533    0.12757100   -0.25100200
Se   11.22873000    0.63208000   17.16343000     -0.845175   -0.92962600   -0.28033200
Se    9.28542000    6.99356000    2.34185000      0.053753    0.47848900    0.09864800
Se    7.53348000    8.33610000   15.84111000     -0.099727   -0.43525100    0.32824000
Se   10.23966000   10.72931000    3.38902000     -0.097968    0.65420500    0.16314400
Se    9.83905000   10.54486000   12.20226000     -0.428134    0.35595400   -0.09838900
Se   10.00234000   19.54217000    1.89342000     -0.370633   -0.58868800    0.20588500
Se   15.10671000   18.37502000   12.68102000     -0.055978   -0.13893700   -0.35314200
Se   14.46536000    3.04286000    6.07495000      0.737087    0.65875400   -0.71550500
Se   14.68020000    1.42943000   15.61511000     -0.527596    0.24728800    0.09700600
Se   15.41038000    6.30489000    3.49896000     -0.276390   -0.08968000    0.19766700
Se   12.59909000    8.24663000   10.87581000      0.086827   -0.13746100    0.91710600
Se   15.79982000   10.65282000    2.77134000      0.254359   -0.05905300   -0.15631900
Se   17.11735000   14.39761000   16.42695000     -0.007152   -0.50807500    0.08783600
Se   15.68145000   15.68386000    3.77448000     -1.078005    0.63595800    0.40386700
Se   14.56059000   22.28098000   12.93119000      0.370859   -0.57715500   -0.20025000
Se    0.87398000   21.27250000    5.81259000      0.490523    0.52228900    0.74454200
Se   19.82958000   22.28750000   13.08951000     -1.453830    0.73103400   -0.03851500
Se    0.11162000    7.52858000    3.36717000     -0.356676    0.03296300   -0.19605600
Se   19.77526000    8.58141000   14.24002000      0.119360    0.25360000   -0.56982100
Se    1.66228000   13.84131000    5.66477000     -0.890721    0.27365700    0.48037000
Se   22.45367000   15.84928000   14.92449000      0.287054   -0.81283100   -0.50143000
Se   21.64935000   18.54584000    4.61964000     -1.103996   -1.14370400    0.35828500
Se   21.75084000   21.19137000   10.05486000      0.166602   -0.18080200    0.50375400
Se    3.35610000    4.89594000    3.22214000      0.010207    0.30045600    0.13866000
Se    2.01794000    4.37481000   11.82869000     -0.031525    1.17383600    0.02000100
Se   20.97652000   10.63629000    2.73758000      0.214402   -0.14150400    0.71272400
Se    1.88126000   10.35818000   11.68718000      0.078569   -0.66532700    0.74997500
Se    0.25170000   15.60847000    0.21348000     -0.512069    0.94686800   -0.90425000
Se    3.20404000   15.69160000   12.53502000      0.538311   -1.27723000    1.02219400
Se    1.91130000    0.41245000    2.37280000      0.302542   -0.79065900    0.42687500
Se    5.70086000   19.94565000   15.60493000     -0.122786   -0.54870300   -0.26297400
Se    9.57353000    4.50299000    4.81917000     -0.678786    0.27379100    0.21169900
Se    9.63342000    2.61136000   14.11271000      0.125002   -0.71088100   -0.04436700
Se    6.94993000    6.39348000    4.84520000      0.049013   -0.13917600   -0.74112200
Se    8.24169000   12.34673000   15.43435000      0.252405    0.06192300   -0.86585800
Se    5.64905000   14.48908000    2.40950000      0.163743    0.10552500   -0.43661000
Se   10.79262000   15.05254000   11.00627000      0.074031   -0.48679400    0.43187500
Se    7.30622000   20.62787000    6.13759000     -1.583584    0.19819700    0.04714100
Se    9.11938000   19.75642000   14.96842000     -1.902254    0.24989000   -1.72746100
Se   14.01184000    2.25988000    2.49679000     -0.037352    0.70443300   -1.51806800
Se   11.00519000    4.70499000   11.84137000      0.333296    0.31161800    0.29415000
Se   14.04742000    8.63884000    3.02529000      0.023485   -0.57892200   -0.56610700
Se   10.98661000    9.70752000   14.09628000      0.115890   -0.07850600    0.11304700
Se    9.08229000   14.30702000    4.44451000      0.480902   -1.08588900    0.46564200
Se   14.41962000   14.90717000   11.06017000      1.628292   -1.26019600   -2.99520900
Se   14.38917000   20.14801000    2.01591000      0.597838   -0.08211000   -0.33063200
Se   13.70933000   20.04640000   13.96361000     -0.907289    0.49385100   -0.27553700
Se   18.31065000    6.31558000    0.23436000     -0.002601   -0.63928000    0.92264100
Se   14.96898000    4.47091000   13.47143000      0.016324    0.23566000    0.79538700
Se   18.25152000    7.61970000    4.00958000      0.642863    0.40273000   -0.77000800
Se   21.08258000   13.89952000   11.40030000      0.524152   -0.43753800    0.73452100
Se   21.08129000   14.64441000    3.38996000      0.039368    0.63198400    0.23343000
Se   17.17550000   17.06648000   11.42340000      0.418623    0.04924700    0.49844600
Se   16.72980000   21.31023000    5.09179000      0.675693   -0.37385300   -1.04540300
Se   16.93285000    1.59894000    9.96689000      0.551910   -0.16441300    0.12490900
