384
22.54784000 22.54784000 18.93360000
Ge    4.67070000    4.86799000    9.89521000     -0.100770   -0.75132700   -0.41907100
Ge    4.36970000    7.21597000    1.49848000     -0.447416   -0.35911300   -0.50814800
Ge    4.04787000   10.97140000    7.00120000     -0.057720    0.29882100   -0.19885700
Ge    6.74728000   10.46358000   17.87004000     -0.271893   -0.24564300   -0.10445000
Ge    4.55260000   14.43774000    9.94589000      0.136134   -0.42519100   -0.06018100
Ge    8.37645000   17.89164000    1.05911000      0.240012   -0.25900700    0.17368300
Ge    7.19568000   19.77842000    8.60591000      0.424341    0.31895700    0.03113900
Ge    5.42309000    0.07419000   17.63685000     -0.029283   -0.00574700    0.13037600
Ge    8.30171000    6.67821000    9.74264000     -0.548130    0.17057600   -0.33401300
Ge   11.61368000    5.22471000   18.08812000      0.670060   -0.83154400   -0.33248700
Ge   11.26664000    7.70248000    8.80312000      0.596280    0.34821000   -0.74262200
Ge   10.15913000   12.19206000    0.21681000     -0.536966    1.26170100    1.19322200
Ge    9.57786000   16.87758000    8.93434000      0.193965    0.28862500   -0.47395000
Ge   11.77980000   15.55029000    0.63944000      1.310513   -0.23264400   -0.71645000
Ge    9.44718000   22.52477000   10.62786000      1.399320    0.93071700   -1.87773500
Ge   15.13845000   21.33453000   18.64948000      0.430326    0.16929200    0.92944000
Ge   18.27992000    4.93914000   10.25520000      0.653330    0.39783400   -0.60038500
Ge   18.47162000    8.12919000   17.10638000      0.301554   -0.00592700    0.50688100
Ge   18.68003000   14.75473000   10.51526000     -0.365374    0.42931000    0.79903000
Ge   17.30158000   11.32381000   18.06976000      0.457854    0.11521300    0.03419000
Ge   13.45295000   16.00817000    9.00183000     -0.148216    0.04160700   -0.39482500
Ge   16.94685000   14.48583000    0.14579000     -0.466119    0.21033300   -0.66945200
Ge   16.08684000    4.18470000    9.31872000     -0.865552   -0.41479900    1.03193000
Ge   18.70618000    3.52675000   18.38294000      0.041580    0.23454200    0.62959700
Ge    0.88211000    4.08421000    9.56454000      0.289277   -0.30465700   -0.42280400
Ge   21.73840000    4.22407000    3.01083000     -0.503484    0.29345000   -0.66905900
Ge    0.25372000    9.93977000    8.92516000      0.105656    0.32784700    0.59543200
Ge   21.89292000    9.30860000   18.31812000     -0.518671    0.58498200    0.08174900
Ge   21.11542000   15.72516000    8.76352000     -0.502958    0.03478900   -0.25357200
Ge    3.87519000   15.09366000   18.20477000     -0.510140   -0.11448500   -1.04982700
Ge   19.06214000   22.19383000   10.59713000      0.254022    0.67974600    0.24680500
Ge   21.65013000   20.24943000    2.92376000     -0.022999    0.92553500   -1.89623700
Ge    4.17846000    7.19099000    7.56637000     -1.519150   -0.15167500    0.24502700
Ge    1.83495000    7.04222000   16.59399000     -0.160298    0.23612700   -0.31815900
Ge   20.39713000    8.98457000    4.71770000      0.061674    0.42585100   -0.67573300
Ge    3.33693000   12.59839000   15.33624000     -2.037346   -0.50303500   -0.11005100
Ge    4.65967000   19.22120000    4.98150000      0.285530   -1.02126000   -0.21948300
Ge    0.80392000   18.06291000   18.43404000      0.277943    0.30657400   -0.24519400
Ge    4.24214000   19.38655000   10.03216000      0.299704   -1.42265400    0.27068100
Ge    1.66035000    1.60936000   18.30148000      0.579930    0.01634000    0.11475100
Ge    9.40949000    2.04128000    7.44389000      0.252177    0.03406600    0.26341200
Ge    7.33237000    5.86845000   16.90434000      0.904230    0.74702200   -1.02469500
Ge    7.65767000   10.74733000    3.96866000      0.559286   -0.36861000   -0.11552400
Ge   10.21265000    8.25013000   16.35120000     -0.329777   -0.39935300    0.42032000
Ge    6.92438000   16.41124000    8.56334000      1.388435    1.21583600    0.93499400
Ge   10.13854000   15.61519000   15.71798000     -0.632396   -0.23622400    0.02165400
Ge   10.53687000   21.13775000    6.18549000     -0.242396   -0.27069300    0.96289300
Ge   10.56812000   22.08413000   14.17904000     -0.395474    0.02596100    0.29557400
Ge   12.62606000    7.72624000    4.79668000     -0.737637   -0.64699700   -0.11567200
Ge   15.05088000    4.61784000   16.09845000      1.027172    0.62773300    0.14587300
Ge   14.11661000   10.25855000    6.90866000      0.134687   -0.50983800    0.45273900
Ge   15.36514000   12.25598000   15.36680000      0.559459   -0.46822300   -0.07795800
Ge   12.85987000   15.10684000    5.57140000     -0.632081    2.92859100   -0.44514600
Ge   15.10190000   18.25018000    0.39860000     -1.059152   -0.87091000   -0.48942900
Ge   14.81196000    0.31921000   10.04106000     -0.743583   -0.25069400   -0.64897700
Ge   17.13469000   22.21389000   14.01142000     -0.256297    0.07074600   -0.54334900
Ge   20.77978000    4.27173000    8.65551000     -0.079059    1.14244600    0.45960100
Ge   19.70715000    5.76273000   13.73917000      1.027780    0.74108000    0.35653500
Ge   18.70802000   10.78632000    7.67343000     -0.307502   -1.06875500   -0.21349600
Ge   20.83220000   15.05025000   16.81591000      0.195010    0.64833100   -0.33032900
Ge   19.62403000   15.59889000    5.27604000     -0.289037    0.18804100    0.77344600
Ge   17.47676000   18.12285000   16.65808000     -0.459222   -0.79998000    0.42198400
Ge    1.00708000    0.99080000    7.74799000     -0.414937   -0.08585100   -0.85080300
Ge   18.88506000   21.22480000   16.96843000     -1.051805   -0.53760600    0.71024800
Ge    7.00135000    3.31758000    6.84336000      1.109507    0.47873700   -0.48514100
Ge    3.58670000    2.85704000   12.93236000      0.690058   -0.23142800    0.55932100
Ge    0.22449000    9.26339000    5.94094000     -0.049272   -0.87039600    0.01407400
Ge    2.47492000    7.77889000   11.13500000     -0.588298    0.51340800    0.31236800
Ge    0.89532000   15.78650000    3.68494000     -0.182562   -0.04016700    0.16710700
Ge    2.57486000   18.24248000   14.91753000     -0.091942   -1.86517900    0.40794700
Ge    3.63269000    0.25538000    9.02314000     -0.216866    0.16869600   -0.69296000
Ge    7.77924000   17.71065000   16.99928000      0.280336    1.14116900   -0.33951000
Ge    7.57099000    3.51990000    2.85698000     -0.079865    0.10965000   -0.03630500
Ge   10.11158000    2.73203000   16.63382000     -0.822009    0.60340100    0.50510500
Ge    8.64926000    8.22815000    4.43021000     -0.339339    0.30558500   -0.59046100
Ge    7.04444000    9.75391000   12.80370000      0.768835    0.03397800    0.53194900
Ge    6.61366000   14.34323000    4.89080000      0.055210    0.57670200   -0.31706000
Ge   11.53947000   11.89300000   15.42233000      0.427375   -0.21644300    0.03575000
Ge    8.09276000   20.32364000    3.62881000      0.089389    0.15528100   -0.20592200
Ge    9.45940000   16.47860000   12.63103000     -0.503640    0.48850000    0.64762700
Ge   11.73631000    1.81099000    5.22718000     -0.052171   -0.37640300   -0.73097200
Ge   12.63140000    4.06484000   13.94512000     -0.501102    0.79601700   -0.07311700
Ge   17.24451000    4.81302000    5.22209000     -0.471507   -0.00889300   -1.37002800
Ge   13.87522000    8.44798000   13.82418000     -0.987213    0.10331700    1.07885700
Ge   15.07867000   12.95127000    3.63975000     -0.778501    0.45326600    0.27907900
Ge   13.53712000   16.21609000   12.62880000     -1.365957    2.62440300    0.65335000
Ge   11.53051000   18.07022000    3.84153000      0.054985    0.02991500    0.45129100
Ge   10.72748000   19.79283000   16.52900000      1.901828   -0.32996600    1.43949900
Ge   22.21363000    4.36149000    5.61210000      0.285163   -0.48808600    0.15358400
Ge   22.51165000    2.61501000   13.71758000     -0.435027    0.22813500    0.67808600
Ge   18.93812000    7.57119000    6.73760000     -0.392269    0.49152100    0.59958800
Ge   17.48692000   10.52897000   12.61494000      0.625492    0.25995700    0.55751900
Ge   20.55240000   16.49788000    1.27977000      0.741909    1.17823400    0.86498700
Ge   18.58187000   15.25166000   13.88214000     -0.051126    1.33579600   -0.06666900
Ge   19.07869000   19.87003000    5.62772000      0.885819    2.72768600   -0.02824300
Ge   21.90770000   21.25498000   12.79868000      0.252069   -1.19201600   -0.75498100
Ge    4.39011000    2.64971000    2.95235000     -0.104340   -0.42749800    0.08098200
Ge    6.10161000    0.88589000   13.12160000     -0.481680    0.73373900    0.07181300
Ge    4.77491000    7.74298000    4.19617000     -0.860721   -0.25194800    0.13716000
Ge    6.70696000    5.35251000   14.41307000     -0.135723   -0.64301800    0.52405500
Ge    4.14393000   12.30916000    1.47440000      0.525113    0.16634000   -0.13509100
Ge    4.41048000   10.79284000   12.74023000     -0.867948    0.54648500   -0.49593600
Ge    4.58865000   21.70206000    6.75002000      0.942062    0.03227500   -0.83869400
Ge    6.68074000   19.63057000   12.57598000      0.004362   -0.38774200   -0.09620000
Ge   11.07168000    3.67544000    3.18707000      1.022581   -0.36421500   -1.04384800
Ge    8.23660000    4.25752000   12.45242000      0.014777   -0.17306200    0.09517400
Ge   11.42427000    7.97897000    1.29435000      0.430377   -0.00970300    0.39454100
Ge   10.51101000    7.12435000   12.75279000      2.060819   -0.17301200    0.06899400
Ge    8.26554000   13.90520000    1.34108000     -0.217962   -0.69060400    0.28211000
Ge    8.65026000   13.97557000   10.33349000     -0.479258   -0.85480600    0.12245500
Ge   11.79856000   21.47179000    1.31754000     -0.083496    0.06705500   -0.43283000
Ge   11.21762000   19.87092000   12.75240000      0.200380   -0.47535500   -0.20373300
Ge   22.19180000    0.47162000   17.22817000     -0.346161   -0.74738500   -1.20872600
Ge   12.66397000    2.38209000   10.78988000     -0.120938   -0.33196200   -0.63394900
Ge   16.69181000    7.76124000    1.82395000      0.217775    0.05907000   -0.41432300
Ge   15.00625000    8.22115000   10.35769000      0.425504   -0.58814900   -0.54010300
Ge   17.91852000   12.27578000    2.19384000      0.292347   -1.34734900   -0.15795000
Ge   16.85963000   15.99906000    8.67895000     -0.081551    0.31441900    0.21148300
Ge   16.85235000   20.49842000    2.67374000      0.044046   -0.64278200    2.10388000
Ge   13.82561000   19.31047000   10.11879000      0.733865   -0.00484800   -0.09925500
Ge   21.55928000    1.82623000    2.12421000     -0.329032    0.08425100   -0.31776200
Ge   21.16791000    1.20906000   10.28950000      0.372518    0.09549200    0.41722100
Ge    1.03886000    8.80007000    1.37798000      0.297690   -0.42909100    0.53889500
Ge   21.68361000    9.25739000   12.91436000     -0.193700   -0.68590200    0.26551000
Ge   20.66600000   13.01294000    1.68463000     -0.227173   -0.93560700   -0.59107400
Ge    0.94821000   14.70345000   10.29661000     -0.485959   -1.58580900   -0.90385100
Ge    1.43473000   19.12945000    4.71416000      1.163459   -0.56369600   -0.75727700
Ge   18.76527000   18.99026000   11.35970000     -0.492314   -0.01906800   -0.70633400
Se   20.95573000    0.25285000    0.36946000     -0.415930    0.07534200    0.53544900
Se    1.47440000    1.65150000   10.19478000     -1.112714    0.49809900   -0.60284600
Se    2.91174000   10.05947000    2.85745000     -0.640651   -0.28980800    0.04624100
Se   22.36483000    7.09407000   11.53518000      0.013922    0.00894800    1.10656900
Se   22.16977000   12.48157000   18.49599000      0.356544    0.43949400    0.67725600
Se    1.68967000   12.51541000    9.06299000      0.259233    0.55150700    0.30992500
Se    2.50886000   16.81930000    5.58514000      0.518177    0.71332000   -0.18705300
Se    1.53213000   16.81104000   11.21315000      0.155918    0.78595600    0.49791600
Se    5.69965000    2.94901000    0.89980000     -0.158969   -0.42093200    0.02089000
Se    6.39794000    3.20875000   11.09017000     -0.362937    0.27706500    0.02047700
Se    6.68118000    6.10730000    1.94575000      0.575469   -0.44992900    0.21335300
Se    8.14977000    6.87650000   12.35260000     -0.981501    0.32033300    0.28781200
Se    7.84518000   10.58835000    1.21826000      0.004818   -0.15545700    0.35917200
Se    6.49591000   12.97293000   13.32432000     -0.372419   -0.48307800    0.38719500
Se    5.85712000   20.26968000    2.31040000     -0.044778    0.03861800   -0.52598300
Se    8.67152000   18.86025000   10.83251000     -0.092448   -0.34016000    0.14367100
Se   12.81152000    1.27933000    0.52453000      0.270666    0.24725500    0.40645600
Se   11.90739000    1.74090000   13.24016000      0.097632   -0.07262300    0.25779100
Se   12.45913000    7.53009000   17.99849000      0.341813    0.81128100    0.00896100
Se    9.49450000    9.28413000    9.91243000     -0.202255   -0.21530500    0.08765000
Se   12.88792000   13.14874000    2.18034000      0.612183    0.41652900   -0.51254100
Se   11.80778000   10.93505000    8.46570000      0.590464    0.01885200    0.04141200
Se   13.90060000   16.98027000    2.30589000      0.023605   -0.72530200    0.19691100
Se   11.93578000   17.51814000   10.30911000      0.656277    0.86002200    0.07669800
Se   19.00099000    3.49324000    2.72434000      0.292886   -0.31912800    0.80279900
Se   16.17287000    1.86096000   12.32599000      0.208597    0.09371600   -0.15394200
Se   15.97744000    8.31345000   17.96851000     -0.115601   -0.40178600    0.08031800
Se   17.47071000    6.04671000   12.27299000      0.263026   -0.70958100    0.50176500
Se   18.59642000    9.50499000    0.57458000     -0.160248    0.53703300   -0.48121800
Se   17.78533000   14.19244000    6.88024000     -0.022885   -0.62995700   -0.36186100
Se   20.43271000   19.19922000    0.46921000      0.042581    0.10123900    0.56865700
Se   15.98509000   18.39493000    8.80720000     -0.672454    0.74717500    0.40526800
Se    1.54162000    2.70501000    1.75715000      0.308641   -0.26947400    0.00049900
Se    5.49657000    7.18961000   10.37325000     -0.136728    0.60506900    0.01352900
Se    5.36587000    9.93523000    2.33258000      0.022679    0.95220600   -0.86754400
Se    4.81202000   11.72827000   10.12941000     -0.143624    0.30520600    0.07099700
Se    2.69749000   15.37297000    1.49494000      0.380966   -0.19200600    0.37707400
Se    1.99530000   13.25704000   13.00761000      0.769808    0.66668300    0.20549800
Se    3.11018000   21.18255000   18.66869000     -0.976924    0.16645600   -0.74890100
Se    5.62155000   21.39580000   10.06214000      1.122708   -0.90292200   -0.06657600
Se   12.29434000    5.46310000    1.56009000      0.320180   -0.07890400    0.69873400
Se    6.54801000    5.47305000    8.01128000     -0.715358   -0.33311600    0.22744000
Se   11.77552000   10.61964000    0.91820000      0.200637   -1.04365300    0.62946100
Se    7.06391000   11.09533000   10.68725000      0.264628    0.55587900   -0.36322700
Se    9.87610000   15.71277000    2.08046000     -0.736475    0.55276300    0.23356100
Se   13.15693000   12.89080000   12.77386000     -0.836120   -0.15918200    1.08285300
Se    9.78424000   21.26147000   18.44504000      0.242534    0.74370900   -0.15886300
Se    8.32106000   22.27183000   12.57425000     -0.325824   -0.53266200    1.27726200
Se   15.59998000    4.61451000    0.36888000      0.084973   -0.48443100   -0.23590100
Se   16.95744000    6.90301000    8.81035000      0.436264    0.01401300    0.07253400
Se   14.81731000   10.83157000   18.89143000      0.081710   -0.34482600   -0.10992800
Se   14.93793000   11.33546000   12.11583000     -0.244968   -0.21676500    0.24890900
Se   17.58629000   14.54650000    2.93396000      1.023114    1.00261300    0.20397600
Se   15.44861000   12.34669000   10.05785000      0.422426   -0.19134100   -0.42869300
Se   17.04973000   22.13280000    1.11257000      0.777372    1.37310600   -1.39901500
Se   14.79940000   21.16066000    7.74426000      0.393667   -0.24554500    0.92263900
Se   21.74721000    5.06758000    0.68123000     -0.179763    0.38510400    0.38940600
Se   20.99928000    3.15929000   11.81914000     -0.365161    0.44753900   -0.20394200
Se   20.14946000    7.00704000    1.90603000      0.548492   -0.65853200   -0.38918800
Se   20.85242000   10.28968000   10.83783000      0.339942    0.81178500   -0.21368700
Se   19.49281000   14.69039000    0.11173000     -0.935570   -0.68293700   -0.98738200
Se   20.70108000   16.39259000   12.54649000     -0.223922    0.13246900   -0.49472500
Se   20.80985000    0.54515000    3.99700000     -0.030803   -0.74651800    0.65036200
Se   17.07252000   20.80664000   10.93153000      0.047579   -0.56541200    0.64451700
Se    2.77229000    4.41299000    7.92306000      0.249662   -0.00263900    0.59835600
Se   22.05004000    3.51638000   17.06955000     -0.550640    0.06570900   -0.13832300
Se    2.79785000    9.56806000    8.62132000      0.201865   -0.75202500    0.15570800
Se    1.47531000    9.49599000   17.03076000     -0.347572    0.39540800   -0.37767200
Se    4.82132000   17.28423000    8.12592000     -1.349101    1.40798000    0.37140400
Se    0.09416000   18.07696000   15.71673000     -0.014409   -0.24521500    0.05059900
Se    1.55754000   19.79119000   12.90552000     -0.394473   -0.41169300   -0.79147500
Se    1.01461000   20.80777000   17.25260000      0.666498    0.18249800    0.96300200
Se    5.47726000    3.76982000    4.91509000      0.111061    0.71112700   -0.08709300
Se    5.49233000    5.34713000   18.22236000     -0.450273    0.35283600    0.94950100
Se    5.58061000    8.73576000    6.34558000      0.637959    1.72702300   -0.08964900
Se    4.23857000    7.68499000   16.05366000      0.432020   -0.67039500    0.16409700
Se    6.62787000   15.36771000   11.08712000      0.369134    0.60525200    0.24977500
Se    6.31621000   16.19587000   18.29632000     -0.271570    0.70684900    0.62435000
Se   10.14734000   18.10383000    6.50456000      0.538565    0.18279000    0.52713500
Se    6.62385000   20.09121000   18.58395000     -0.187744   -0.18023800    0.09162300
Se    9.91775000    2.40936000    9.98989000      0.041145   -0.50980900    0.09086100
Se   13.00184000    3.09232000   16.40487000     -0.545580    0.27702600    0.32873600
Se   13.49565000    7.62713000    7.09580000      0.430542    0.20323700    0.63603600
Se   13.75974000   10.26966000   15.93608000     -0.545396    0.58748600   -0.09872700
Se   11.63272000   14.81909000    7.74001000     -0.033851    0.34132800    0.74435300
Se   14.25854000   16.09824000   17.81504000      0.562765    0.44780300   -0.63589400
Se   12.32547000    0.19365000    6.92834000     -0.193896   -0.07791800    1.09363500
Se   15.12260000   19.49144000   17.00375000     -0.193994    0.64823400    0.62575500
Se   13.77891000    4.57611000   10.28998000      0.628718    0.00746900   -0.33367500
Se   20.39622000    2.43871000   15.36656000      0.942327   -0.23250100    0.06995700
Se   18.57673000    9.85097000   10.26153000     -0.073679   -0.25042800   -0.06899900
Se   17.33288000   10.18509000   15.57714000     -0.097656    1.32534300    0.10453900
Se   14.80821000   16.45291000    6.79087000     -0.049758   -0.12999000    0.07717300
Se   19.46541000   13.39905000   15.20537000      0.385884   -0.53408700    0.42358700
Se   18.70490000   20.98618000    8.10220000      0.382695   -0.33673000   -0.26235400
Se   18.93235000   18.83728000    2.67673000     -0.379853    0.43468900    0.05861700
Se    5.67985000    1.54474000    7.50979000     -1.378879   -1.64843500    0.94374400
Se    3.77736000    2.48986000   17.52561000      0.013461    0.09565500   -0.69976700
Se    7.57627000    8.58774000    8.28337000      0.721225    0.38975900   -0.06341300
Se    4.54410000    9.40097000   18.75764000      0.206307   -0.19783600   -0.25676300
Se    6.53480000   17.06522000    5.33781000     -0.688367    0.34740500    0.63094200
Se    5.67320000   12.88712000   17.96659000     -0.804615   -0.89509400    0.60293700
Se    2.05453000   20.48117000    9.97621000     -0.512077   -0.30760200   -0.52352900
Se    1.34066000   19.28275000    2.01377000      0.169440    0.22325400    0.73812300
Se    8.58197000   22.05240000    8.46399000     -0.020623   -0.77367800    0.14950700
Se    9.68798000    3.59049000    1.19422000     -0.772432   -0.71135100    0.14386800
Se   10.11046000    5.50812000    8.62902000      0.314627   -0.25561400    0.00094100
Se    9.41093000    6.19184000   18.31829000     -1.413723    0.68034500   -0.58975800
Se    9.61441000   12.21436000    5.82609000     -0.526951    0.27058300   -0.91146700
Se    7.90985000   14.58224000   17.82022000      0.245256   -0.18739800   -0.14189700
Se   11.73627000   21.79420000   11.09980000     -0.121134   -0.18617800   -0.33664200
Se   11.47142000   13.60301000   17.64441000      0.184942    1.09594400   -0.30431700
Se   15.28307000    1.18335000    7.37568000      0.112618   -0.74041800    0.77156200
Se   16.71204000    2.54575000    0.86218000      0.039485    1.14811200   -0.47251300
Se   15.61480000    5.05199000    7.12484000     -0.512094    0.43122600   -0.27416600
Se   15.49724000    7.26922000   15.90504000     -0.456770   -0.69399700   -0.64119400
Se   15.98737000    9.86064000    8.74655000     -0.212086    0.60885500    0.04056200
Se   14.17885000   13.04623000   18.85956000     -0.019105    0.60640100    0.71013500
Se   13.66517000   19.07746000    5.47034000     -0.431751   -0.13619100   -0.37360400
Se   17.50430000   17.79801000    0.28351000      0.156318   -0.16094400   -0.45873000
Se   21.06780000    2.01187000    7.96541000     -0.135055   -1.32354500   -1.13210700
Se    0.78327000    0.21927000   13.83043000      0.744493    1.20248500    0.09651600
Se   20.89807000    7.06188000    9.38224000     -1.459182    0.07143200    0.43470800
Se   21.21813000    7.18635000   17.57149000     -0.167238   -0.31916100   -0.59847000
Se   21.27364000   10.99820000    7.20977000     -0.002451    0.15378200   -0.05259000
Se   20.35206000   11.73609000   17.34618000     -0.507833   -1.43491300   -0.42193600
Se   19.07117000   17.20876000    7.68647000      0.158681   -0.70968800    0.56821100
Se   19.55043000   17.16071000   15.80451000      0.263656   -0.45126800    0.61810100
Se    3.78061000    0.52735000   11.36201000      0.572955    0.59682700    2.07089600
Se    2.39513000    2.14646000   15.30360000      0.501265   -0.08782700    0.08103700
Se    0.24954000    7.38152000    8.21167000      1.040851    0.29173500   -1.22344300
Se    1.15804000    9.82543000   14.39078000     -0.142078    0.08982400   -0.84904500
Se    3.85099000   14.51574000    5.26055000      0.906797    0.43727800   -0.27064700
Se    1.90169000   13.68719000   17.03482000      0.975154    0.17518600   -0.26026700
Se    0.72433000   16.91458000    8.65826000     -0.369819   -0.12440900   -0.23076600
Se    3.01277000   20.52390000   14.60004000      0.549502    1.45193800    0.37443700
Se    6.64095000    0.93734000    3.66729000      0.878538   -0.08775800   -1.17017900
Se    7.80750000   22.45881000    1.69686000     -0.079417    0.82418700    0.76964500
Se    9.96753000    8.78727000    6.53593000     -0.600098   -0.14907400    0.13741100
Se    4.22880000    5.51287000   14.46726000      0.452670   -0.28183800    0.06286000
Se    5.63010000   12.12927000    4.71951000     -0.009064   -0.98152100    0.15695400
Se    9.55956000   13.80220000   13.74039000      0.472815   -0.33157100    0.02190100
Se    8.36142000   17.81725000    4.11454000      0.157166   -0.23983700   -0.55859700
Se    7.62261000   16.47553000   14.95725000      0.425041   -0.24896900   -0.65506900
Se   13.84098000    0.78590000    4.17129000     -0.430920   -0.57701500    0.01072500
Se   13.83457000   22.05044000   16.67595000      0.301981    0.20317000   -0.65531500
Se   11.86442000    9.98358000    5.56645000     -0.466178    0.16169000   -1.20047700
Se   11.99274000    6.61921000   14.96164000     -0.531667   -0.27964800   -0.35079500
Se   13.30432000   12.94227000    5.55446000      0.926981   -2.98325000   -0.36408100
Se   14.16602000   14.72880000   14.29602000      0.234657   -0.97279300    1.40603700
Se   12.44212000   19.37399000    7.41812000     -0.553605   -0.70426800    0.23865600
Se   12.63392000   18.78756000    0.11212000     -0.694309   -0.13885700    0.31283000
Se   19.90126000    2.62317000    4.97173000      0.627609   -0.39869500   -0.29398100
Se   17.21530000    0.50566000   16.40542000      0.322494    0.26169600    0.17768600
Se   19.51206000    5.13022000    6.18969000     -0.068088    0.19943300    0.47041900
Se   18.69685000    5.55963000   16.05792000      0.148613    0.21099200    0.06280200
Se   19.29209000   11.69800000    4.38166000     -0.211233   -0.69184700   -0.39576700
Se   17.27170000   13.73308000   12.47829000      0.505086   -0.37494800   -0.69560300
Se   17.85773000   18.06291000    5.14203000     -1.510010   -2.03072000   -0.64183000
Se   17.52960000   19.85687000   14.94001000      0.401389    0.11125800   -0.23796900
Se    2.58315000    7.29888000    5.50080000      0.273883   -0.39850400    0.06386700
Se    1.62109000    6.96742000   13.53749000     -0.236561   -0.07404200   -0.26837600
Se    1.51316000   11.32572000    5.58013000      1.170825    0.19010200   -0.30216400
Se    4.03681000   10.17504000   15.29614000      0.083578    0.43398600   -0.25408000
Se    6.28926000   14.30382000    7.96395000     -0.365887   -2.26654900   -1.42096200
Se    3.31320000   17.96793000   17.37770000     -0.276095   -0.66188600    0.79932800
Se    1.53057000   19.60190000    7.64867000     -0.040312    0.24832800   -0.23970000
Se    6.58047000   22.08236000   15.33865000     -0.347475   -0.13508600    0.53521000
Se    9.47780000    0.57274000    5.00920000     -0.067647    0.72441500   -0.53891200
Se    7.41338000    1.78523000   17.65184000      0.318279    0.52140200   -0.52108600
Se   12.57797000   12.53249000    9.90523000     -0.343849   -0.04140000   -0.30646900
Se    9.52929000   10.98771000   17.26757000     -0.229603   -1.01592700   -1.80138800
Se    9.15949000   13.57521000    7.75526000     -0.454116    0.39695300    0.71196600
Se   11.40305000   17.25950000   14.24211000      0.274631   -0.19213700   -0.74874900
Se   11.85755000   20.61896000    4.11742000      0.924171   -0.53547700   -0.14612600
Se   10.40358000   17.32913000   17.85444000     -0.483240    0.69840300    0.16452200
Se   11.44633000    3.68356000    6.79794000     -0.184597    0.08901600    0.08752500
Se   17.53499000    3.34971000   16.13726000     -0.285347    0.32935400   -0.08742200
Se   16.77759000    9.05508000    5.44442000     -0.033351    0.18132600    0.57632100
Se   16.10195000    8.26482000   12.63824000      0.497945    0.70014600   -0.56467500
Se   16.91077000   11.90388000    5.83408000      0.385834   -0.12909400    0.07363000
Se   15.02829000   17.27465000   15.66621000      0.021129   -1.52102400    0.80188200
Se   16.66060000    2.44723000    4.75004000     -0.152604    0.63318000    0.12333700
Se   18.31385000    3.81964000   13.30370000     -0.353571   -0.79381000   -0.92918100
Se    1.57913000    2.61796000    5.76262000     -0.270868    0.34335700    0.54733100
Se    0.17106000    5.01404000   15.35489000      0.239025    0.30195900   -0.18650900
Se   18.98312000   13.01862000    8.64725000      0.004757    0.51448300   -0.25826600
Se   21.35938000   12.60122000   13.63363000      0.016861    0.22750100   -0.31982300
Se   21.53820000   14.65062000    6.58375000     -0.192612   -0.05895100    0.14843700
Se   20.25770000   18.85520000   13.24195000      0.244388   -0.17667900   -0.05400600
Se   20.28248000   19.42624000    8.95180000     -0.432499   -0.14802400    0.09337900
Se   20.89638000   20.81855000   15.95901000      1.402722    0.23709900   -0.52001400
Se    3.42339000    0.52164000    4.40606000     -0.348408    0.07629900   -0.51835900
Se    6.75803000    2.47798000   15.24512000      0.224942    0.32885900   -0.01557000
Se    2.16518000    6.77357000    0.04693000     -0.020820   -0.39480400    1.41146500
Se    4.89404000    8.18006000   12.50340000      0.069865   -0.09901500   -0.07237000
Se    1.24072000   13.56059000    2.32209000      1.022926   -0.39065800   -0.25938400
Se    5.08795000   13.98381000   14.89429000      1.309785    1.91759600   -0.22622500
Se    4.67829000   18.23039000    2.49458000      0.004778    0.17952700    0.60563300
Se    4.59421000   18.17622000   12.24451000      0.532634    0.62247300   -0.72077400
Se   10.29563000    0.71197000    2.49650000     -0.316074    0.04894300   -0.34796100
Se   11.25311000    0.66914000   17.12007000     -0.905417   -0.91411600   -0.25197200
Se    9.23549000    6.93707000    2.31274000      0.170337    0.79180300    0.37543800
Se    7.49205000    8.30406000   15.83638000      0.039590   -0.40026100    0.29567700
Se   10.25145000   10.72400000    3.39543000      0.002429    0.42029100    0.07727900
Se    9.79858000   10.49828000   12.25086000     -0.357797    0.40711800   -0.05386100
Se    9.98785000   19.61953000    1.91128000     -0.503091   -0.90709100    0.06626900
Se   15.09465000   18.37781000   12.66973000     -0.069965   -0.16486300   -0.39974400
Se   14.51793000    3.03169000    6.07281000      0.435503    0.49825400   -0.82504300
Se   14.72660000    1.43112000   15.63233000     -0.607079    0.29050600    0.12186200
Se   15.46005000    6.27389000    3.55027000     -0.222585   -0.29625300    0.40019900
Se   12.64267000    8.25199000   10.84878000     -0.267122   -0.09479100    0.96622400
Se   15.75293000   10.67749000    2.72551000      0.248838   -0.15195400   -0.16260100
Se   17.12605000   14.40587000   16.45269000     -0.040965   -0.48338200   -0.02000400
Se   15.69483000   15.68534000    3.72874000     -1.209712    0.70044500    0.50703600
Se   14.53613000   22.25576000   12.90296000      0.484839   -0.38039200   -0.12558900
Se    0.85130000   21.24357000    5.84217000      0.484779    0.58959900    0.74461400
Se   19.82016000   22.27553000   13.12483000     -1.416264    0.70459000   -0.08860600
Se    0.10301000    7.51738000    3.34009000     -0.203083    0.04958400   -0.06987800
Se   19.81175000    8.56848000   14.26941000     -0.163060    0.17573400   -0.40644600
Se    1.71532000   13.85181000    5.67861000     -1.433239    0.08804400    0.58313600
Se   22.46578000   15.83896000   14.88444000      0.265096   -0.03857600   -0.09388100
Se   21.67919000   18.60261000    4.57355000     -1.191652   -1.94431000    1.10074900
Se   21.80380000   21.16916000   10.04643000     -0.139644    0.03184500    0.52748400
Se    3.39400000    4.87357000    3.22340000     -0.129289    0.40203400    0.14371900
Se    1.94314000    4.28933000   11.82121000      0.286447    0.96416900    0.41162200
Se   20.99413000   10.64397000    2.70630000      0.171480   -0.00671700    0.65397300
Se    1.81881000   10.35064000   11.71127000      0.315366   -0.65309000    0.69417100
Se    0.20654000   15.60936000    0.20542000     -0.503831    1.09313200   -0.91555000
Se    3.16996000   15.71361000   12.56060000      0.336831   -1.34254200    0.87355400
Se    1.92698000    0.32972000    2.38529000      0.313888   -0.23044000    0.32101400
Se    5.70675000   19.90061000   15.64136000     -0.024159   -0.52519600   -0.16400300
Se    9.56496000    4.46719000    4.79191000     -1.073762    0.49945400    0.63450100
Se    9.69517000    2.59679000   14.11212000     -0.141938   -0.59240300    0.28138300
Se    6.94758000    6.37014000    4.78760000     -0.108021   -0.05056700   -0.57954200
Se    8.24276000   12.34172000   15.45392000      0.132929   -0.02666000   -0.80506200
Se    5.65657000   14.48492000    2.35908000      0.287447   -0.06858100   -0.10299900
Se   10.75980000   15.03006000   11.04853000      0.038542   -0.57333900    0.28020300
Se    7.22378000   20.61900000    6.05902000     -1.464296    0.28649900    0.39073700
Se    9.15576000   19.75329000   14.90219000     -1.376165    0.29311200   -1.18075200
Se   13.96707000    2.26657000    2.44386000     -0.052182    0.45545200   -0.78878600
Se   11.08629000    4.73125000   11.82818000      0.074354    0.43263600    0.38115200
Se   14.04228000    8.63241000    3.01417000     -0.049847   -0.47422900   -0.62385500
Se   11.00005000    9.67989000   14.13084000      0.064304   -0.10872100   -0.09815800
Se    9.06138000   14.27913000    4.42546000      0.338416   -0.94437200    0.36245200
Se   14.44716000   14.86902000   11.02337000      1.199878   -0.67378400   -2.37367500
Se   14.42995000   20.14244000    2.05707000      0.653725    0.00159300   -0.26058400
Se   13.70081000   20.07283000   13.93448000     -0.913182    0.24846600   -0.12300800
Se   18.32424000    6.32010000    0.21705000      0.019136   -0.70012100    1.00999800
Se   14.98018000    4.45261000   13.50283000     -0.131502    0.19677500    0.68621500
Se   18.25602000    7.60234000    3.99532000      0.602527    0.59711200   -0.50459600
Se   21.10105000   13.91796000   11.35722000      0.397064   -0.28720100    0.69407100
Se   21.04897000   14.66852000    3.40828000      0.154053    0.47319600    0.01991400
Se   17.24191000   17.07801000   11.39313000      0.296804    0.14924900    0.55075600
Se   16.71686000   21.35542000    5.02549000      0.716707   -0.41090400   -0.90523100
Se   16.97464000    1.61675000    9.99933000      0.326903   -0.29573700    0.33682000
