384
22.54784000 22.54784000 18.93360000
Ge    5.33835000    4.00246000   11.07914000     -0.218741   -0.14910400   -0.46820000
Ge    4.67100000    6.85871000    1.91258000     -0.049543   -0.31546900   -0.47470600
Ge    4.06685000   11.03334000    7.44644000      0.684049    0.58261800    0.18610600
Ge    6.66789000    9.80173000   17.75192000      0.323811    0.44491900   -0.31080600
Ge    4.65605000   14.83432000    9.19036000      0.250732    0.62985600    0.20612600
Ge    8.17086000   17.14249000    1.00163000      0.250033   -0.43977000    0.67548600
Ge    8.40161000   19.38654000    8.23841000     -0.043248   -0.25334200    0.31101800
Ge    5.29722000    0.62726000    0.00076000     -0.595632   -0.39308800   -0.27072300
Ge    7.90494000    5.18596000    9.45861000     -1.203174    0.59990000   -0.47860600
Ge   11.60589000    5.77411000   18.30946000     -0.180239   -1.15698300    0.01166700
Ge   11.86962000    7.31006000    8.83387000      0.039258    0.41222400    0.56252300
Ge   10.56739000   12.33365000    0.07282000      0.388973    1.55281900    0.73788600
Ge    9.90656000   16.63443000    8.98703000      0.783788   -0.20074300   -0.57743700
Ge   12.14108000   16.06705000    0.77443000      0.091734   -1.47289200    0.07388600
Ge   10.38893000    0.24476000   10.21075000     -1.179006   -1.29311800    0.46593200
Ge   15.72465000   21.39669000    0.38734000     -0.154379    0.05658100   -0.83728300
Ge   17.70198000    5.09279000    9.94427000      0.371416    1.23598300    0.92781200
Ge   18.48563000    7.29736000   18.12010000      0.105070   -0.49526600    0.14331100
Ge   19.04382000   14.76060000   11.03325000     -0.409566    0.02521200   -0.05952800
Ge   18.60242000   11.36418000   17.85185000     -0.850409    0.23925400   -0.32769500
Ge   14.05674000   17.17015000    8.91211000     -0.071046   -0.28446100   -0.42056000
Ge   16.91455000   14.66715000    0.60431000     -0.933080    0.69163500   -0.28597700
Ge   16.01913000    3.57921000    8.91277000     -0.743720   -1.25112600   -0.88493600
Ge   19.14507000    3.74039000    0.33413000      0.902418   -0.29603700   -0.23337900
Ge    0.91788000    5.34752000   10.38996000      0.094120   -0.74484600    0.31627900
Ge   21.59647000    4.67040000    2.97490000     -0.584138   -0.31699500    0.45334600
Ge    0.78010000   10.23112000    9.42164000      0.566012   -0.23639900   -0.30794700
Ge   21.51210000    9.28453000   18.05028000      0.624418   -0.74013000    0.23768500
Ge   21.52281000   15.41345000    8.99357000     -1.346375   -1.35303900   -0.35908500
Ge    3.84541000   15.44207000   17.65142000     -0.457427    0.20099300    1.17721600
Ge   18.70472000   22.18267000    9.71012000      0.070708    0.59209600    0.77898600
Ge   20.54132000   20.65180000    1.09966000      0.232569    0.06918300   -0.50313400
Ge    2.14546000    6.27186000    8.14146000      1.521653    0.43206700    0.56228200
Ge    1.61151000    6.85152000   16.90024000      0.489280    0.43721700    0.43725700
Ge   20.67354000    8.85199000    4.97216000     -0.396243   -0.07466800    0.21602600
Ge    3.52414000   12.90641000   15.52771000     -0.451011   -0.35439600   -0.11747300
Ge    5.28439000   18.61247000    4.91215000     -0.304345    0.11946200   -0.45678300
Ge    0.55336000   18.20535000   18.13504000      0.230265    0.98582000   -0.61412400
Ge    4.17136000   19.46679000   10.24590000     -0.624642    0.02449800    0.62314100
Ge    2.68045000    1.49578000   17.11756000     -0.286826    0.28359300    0.27969800
Ge    9.79524000    3.78070000    6.72518000      0.422788    0.07101300   -0.40643300
Ge    6.89439000    5.95456000   16.17258000     -0.340418    0.75121500    0.00429900
Ge    8.17854000   11.44384000    4.24480000     -0.328881    0.53237700   -0.31066500
Ge    9.78600000    8.52126000   17.44332000     -0.306695   -0.37102500   -0.49688500
Ge    6.40467000   17.49921000    8.04547000      0.630931    0.04276400    0.50630400
Ge    9.31807000   15.66491000   16.33889000      0.412855    0.42491500    0.15094500
Ge   10.05990000   21.37920000    6.32826000      0.585081    0.97428300    0.00559300
Ge    9.75694000   20.89266000   14.37477000      0.568194    0.12932400    0.09184300
Ge   12.17536000    6.77193000    4.87096000      0.048324    0.13178200    0.45329600
Ge   15.21147000    5.41129000   15.58174000      0.011289   -1.14679400    0.65661700
Ge   13.89394000   10.57837000    6.68850000     -0.644686    0.36176600    0.32754900
Ge   14.80257000   11.46193000   15.81262000      0.155655   -0.14675100   -0.21447700
Ge   12.69779000   15.06161000    5.71297000      0.071062    0.95389600   -1.14120400
Ge   14.81451000   18.25030000   18.84897000     -1.329935    0.20177000    0.12760500
Ge   13.76577000    0.26118000    9.93637000     -0.609458    0.54061900   -1.64367100
Ge   16.69115000   22.29508000   14.33260000      0.537367    0.16981700    0.94633700
Ge   19.98739000    5.05378000    8.89036000      0.569741   -0.43883200   -0.59795800
Ge   21.21489000    6.14979000   13.56633000     -0.288853    0.76224400    0.52733800
Ge   17.58972000    9.98647000    7.70794000     -0.326756    0.15987300    0.09329200
Ge   20.89309000   15.53880000   17.28389000     -0.891859    0.47775700   -0.54088700
Ge   19.86228000   14.82685000    5.15428000      0.241607    0.48362600   -0.00226100
Ge   17.01502000   18.00864000   16.32083000      0.370214    0.78877600    1.02314100
Ge    0.50866000    0.24152000    7.41316000      0.738905    0.22248400   -0.31400300
Ge   18.81973000   20.57704000   17.07002000     -1.170117    0.50710300   -0.40031900
Ge    6.58964000    2.18544000    6.92497000     -0.491684   -0.08534700    0.20168500
Ge    3.40882000    3.56680000   13.95725000     -0.113798    0.10180300    0.25570700
Ge    1.75214000    8.46902000    5.73522000     -0.183875    0.27802100   -0.25093100
Ge    4.06615000    8.05772000   11.22619000     -0.414346    0.56814600    0.39074600
Ge    0.87470000   15.66407000    4.58725000      0.206326    0.31194400   -0.14207000
Ge    2.97177000   17.10628000   14.95186000      1.164766    0.46584700   -0.19781000
Ge    2.60519000    0.85442000    9.38041000     -0.290323   -0.05038300   -0.61368800
Ge    6.48074000   18.98525000   16.54130000     -0.650117   -1.54164700    1.10322100
Ge    7.73067000    3.97274000    3.15861000      0.313464   -0.13371600    0.76766100
Ge   10.03314000    3.01932000   15.41209000      0.556426    0.65675700    0.59102800
Ge    8.52887000    8.96613000    4.88083000      0.241157   -1.05855500    0.15533300
Ge    8.27024000   10.44946000   13.06277000      0.094143   -0.50916700    0.78627500
Ge    6.68138000   14.76859000    3.83077000      1.320520   -0.37883400    0.57063600
Ge   11.34728000   12.51145000   15.33657000      1.759941   -0.72080400    1.21212300
Ge    7.56215000   19.97465000    3.61732000      0.150062   -0.16070100   -0.13888200
Ge    9.23731000   16.99630000   13.36259000      0.102639   -0.18687200   -0.26504300
Ge   11.86708000    1.66611000    5.22634000      0.871218   -0.47153800    1.06077400
Ge   12.01416000    4.78204000   14.65571000      0.520948   -1.02675100    0.54996200
Ge   17.29755000    6.77202000    5.05913000     -0.545415    0.17788700   -0.63192400
Ge   13.14676000    8.34757000   14.43899000     -0.353951    0.77482000   -0.66906100
Ge   15.12143000   13.04312000    3.86483000     -1.275865    0.16445800    0.07848800
Ge   13.10313000   15.98832000   13.08697000      0.158609   -0.05508400   -0.37679300
Ge   12.00719000   17.51133000    4.43705000     -1.554569   -0.70373000   -0.67638800
Ge   10.87911000   19.14281000   16.63361000     -0.441392    0.46934700    0.55266300
Ge   21.74341000    3.99883000    5.89211000     -0.098981   -0.74318100   -1.07176100
Ge   21.85370000    2.55017000   13.76541000     -0.885613    1.12960700    0.38574000
Ge   18.62325000    7.28680000    7.44140000     -0.088135    0.00237900   -0.06175500
Ge   18.75581000   11.44595000   13.34978000      0.121281   -1.48997200    0.38721300
Ge   21.08891000   17.07604000    1.51644000      0.329793   -0.02140700    0.71965500
Ge   18.57644000   15.45216000   14.33220000      0.075032   -1.17289100    0.23234800
Ge   19.30537000   19.55031000    4.95417000     -0.364486    0.37085500    1.00681600
Ge   22.13520000   20.46820000   13.93063000      0.419242   -0.21757600   -1.56493500
Ge    3.95450000    3.67600000    3.08883000      0.439321    0.07768400    0.21988000
Ge    5.91433000    1.88169000   12.59866000      0.338175   -0.24975600    0.59234600
Ge    4.67369000    8.43779000    4.42389000     -0.196127   -0.18694600    0.56720000
Ge    7.02210000    5.54447000   13.52981000     -0.203489   -0.68779300    0.74081200
Ge    4.46070000   12.78017000    0.63011000     -0.003861   -0.06550200   -0.15055400
Ge    3.78519000   11.67847000   11.83884000     -0.109590    0.77321200    0.14881100
Ge    4.86226000   22.32465000    4.91843000     -1.064113   -0.66600800    0.82116000
Ge    6.99839000   19.97286000   12.01452000      0.805520   -0.51946900    0.48596400
Ge   11.40795000    3.55964000    3.34315000      0.078254    1.30530500   -0.03954800
Ge    8.85851000    3.67216000   11.27788000     -0.348648   -1.21063700    0.49399300
Ge   11.93650000    7.82525000    1.81369000      1.038986    0.20305800    0.06237900
Ge   10.71975000    7.01450000   12.53620000      1.364422    0.43003600    0.20500600
Ge    8.22454000   13.34269000    1.37189000      0.976579   -0.18219000   -0.25995600
Ge    8.73225000   14.30485000   11.35014000     -0.777276    0.06339500   -0.66756500
Ge   11.59919000   21.45495000    0.26389000     -0.212063   -0.25594100   -0.20972800
Ge   11.27964000   19.51651000   12.44260000      0.171465    0.12263200   -0.64634500
Ge   22.05597000    0.62246000   16.38916000     -0.150183   -0.26139500    0.54036300
Ge   12.88489000    2.97196000   11.49395000      0.533857    0.16930100   -0.84638700
Ge   16.15589000    8.67628000    1.39859000      0.594290   -0.33680900   -0.17267200
Ge   14.69426000    9.31021000   10.77222000      0.475863   -0.45021300    0.13025000
Ge   18.66956000   11.66144000    2.40645000     -0.474766   -0.34919500    0.89698500
Ge   17.45072000   15.45858000    8.80456000     -1.456063   -0.22613000    0.38245800
Ge   17.29090000   20.29735000    2.92349000     -1.095314    1.32615100    1.14617700
Ge   15.23257000   20.08720000   10.96742000      0.043128   -0.39921300   -0.06720800
Ge   21.61209000    1.17501000    2.21136000      0.188302   -0.31657800   -0.81726300
Ge   21.15181000    0.88009000   10.75354000      1.089836   -0.43135900   -1.38361900
Ge    0.69970000    8.38725000    1.86311000     -0.310146   -0.07580400   -0.80434400
Ge   21.16921000    9.80750000   12.22810000      0.462072   -0.20848600    0.59110800
Ge   20.68606000   13.09408000    1.18924000      0.680512    0.06581100   -0.02728900
Ge    0.75529000   13.99995000   10.74797000     -0.407996   -0.53332900    0.42513200
Ge   22.32854000   19.75843000    4.29834000      0.583839   -0.09806000    0.28700100
Ge   18.50806000   18.58712000   11.06733000      0.528553   -0.55625800    0.28614800
Se   20.73744000    0.66121000   18.70668000      0.417844   -0.43851400    0.16302700
Se    1.03868000    2.54593000   11.11042000     -0.186616   -0.08160700   -0.57969900
Se    2.52276000    9.62693000    2.83633000      0.224263   -0.46379700    0.05707200
Se    0.00773000    7.83015000   11.10467000      0.235859   -0.34913500    0.14601900
Se    0.94532000   12.27085000    0.72875000     -1.163543   -0.64789400   -1.32046300
Se    2.26282000   12.79854000    9.03082000     -0.159230    0.15427200   -0.25802800
Se    2.11908000   18.39581000    4.59854000      0.064860   -0.96076900    0.15741700
Se    1.46100000   16.28804000   10.94479000      0.851691    0.89976200    0.41457600
Se    6.22990000    1.87727000    2.17387000     -0.402448    0.27715100   -0.63590400
Se    7.30244000    1.53794000   10.66454000     -0.124737    0.50351300   -0.16742300
Se    7.23961000    5.98635000    1.80372000      0.082285    0.60803800    0.31212500
Se    8.38447000    7.07032000   12.03760000      0.425595    1.01773700   -0.28907000
Se    7.80396000   10.67368000    1.04014000     -0.854986   -0.05405400    0.28376800
Se    6.57147000   13.31514000   12.87089000     -0.576191    0.68224700   -0.41897300
Se    4.69657000   20.03388000    2.39606000      0.184907    0.22788500    0.60322900
Se    9.05529000   18.29296000   11.01042000     -0.272998    0.35477000    0.50186900
Se   14.00986000    0.53421000   18.53695000     -0.079916    0.50366300    0.50311100
Se   11.30995000    1.34776000   13.99407000      0.302461    0.50927400   -0.57144400
Se   12.54720000    8.02862000   18.36113000      0.058338    0.11175100   -0.23938900
Se    9.28168000    8.84668000    9.44322000     -0.482148   -0.43697300   -0.61107800
Se   13.30399000   13.72607000    2.04457000      0.324669   -0.42143600   -0.21147000
Se   11.91988000   10.27988000    8.57605000      0.314508    1.03324400    0.14623700
Se   14.32120000   16.56961000    2.24236000     -0.424247    0.27431700   -0.15470000
Se   13.35523000   18.09694000   11.35326000     -0.855306    0.09279400    0.30522900
Se   19.54595000    2.35301000    2.49202000     -1.095078    1.65275800    0.18128400
Se   15.70999000    2.45618000   12.65019000      0.369055    0.24237400   -0.38301900
Se   16.32462000    7.84621000   17.33524000     -0.697868    0.35698500    0.15086000
Se   18.41003000    5.86788000   12.42384000     -0.603000   -0.01656400   -0.77133500
Se   18.76885000    9.35370000    0.61523000     -0.000855    0.29865000   -0.23768100
Se   17.27474000   13.68855000    6.43351000      0.441778    0.72602700    0.22030100
Se   20.09487000   18.28576000   18.50849000      0.532213    0.55224700   -0.31573800
Se   16.78959000   18.07933000    9.50229000     -0.647459   -0.14452900   -0.48486500
Se    1.68391000    3.23807000    0.91499000      0.447364   -0.20552100    0.65497000
Se    6.02266000    6.54527000   11.13063000     -0.242175   -0.09447100   -0.82137100
Se    5.47369000   10.86406000    2.25006000      0.589466   -0.11599500   -0.69241700
Se    5.46948000   12.61341000    9.97161000      0.185418   -0.33534000   -0.11062500
Se    2.35014000   15.07902000    2.21342000      0.538823    1.83743800   -0.01682900
Se    2.38589000   13.51820000   13.24326000      0.240145    0.34457200   -1.62854700
Se    2.89082000   21.94915000    0.72490000      0.125339    0.71079200   -0.03797900
Se    6.16305000   20.62077000    9.81978000      0.228648    0.93403000   -0.59796500
Se   12.63441000    5.34005000    1.68816000     -0.232424   -0.58976700    0.19766300
Se    5.65324000    4.13183000    8.42237000      0.324572    0.27354500    0.41386700
Se   11.81616000   10.63878000    1.36221000      0.101523   -0.54644900   -0.16106900
Se    7.75667000   11.76883000   10.95650000     -0.239976    0.13171100   -0.65636800
Se   10.06835000   15.75344000    2.14563000     -0.225541   -0.04941600   -0.26854800
Se   12.37557000   13.25149000   11.40801000      0.507050   -0.10717900    0.04896000
Se    9.32586000   21.40265000   17.87715000      0.063835   -0.20165800    0.12815700
Se    8.84939000   21.98339000   12.34669000      0.086303    0.31955400   -0.28305800
Se   15.84226000    4.67090000   18.61715000     -1.222237    1.03227200    0.58301700
Se   16.46529000    7.02709000    8.90250000      0.119073   -0.00083000    0.17643400
Se   15.64158000   10.63192000   18.12085000      0.153284   -0.94342400   -0.48928400
Se   14.80005000   10.64725000   12.90881000      0.453026   -0.26845900    0.16234700
Se   17.26203000   13.70242000    2.92154000      1.519025    1.20294200   -0.09629100
Se   15.19036000   13.28530000   11.07287000     -0.618810   -1.44815900   -0.40243000
Se   18.11347000   21.97250000    1.20033000     -1.229512   -0.49365900   -0.01235100
Se   14.72149000   20.92699000    8.69240000      0.824000   -0.39968800   -0.26847000
Se   21.70090000    5.17443000    0.44568000     -0.656529   -0.22432700   -0.21014700
Se   21.38149000    4.26759000   11.95623000      0.007524   -0.35968200   -1.11799400
Se   20.09665000    6.47964000    1.83656000      0.118219    0.38218300   -0.13682900
Se   20.27409000   11.13823000   10.30934000     -0.189241   -0.69755300   -0.07724400
Se   19.33281000   15.26691000    0.56309000      0.730378   -0.65339500   -0.27940900
Se   20.66068000   15.85019000   12.81445000      0.429366    0.05324700   -0.05944600
Se   20.48026000   21.89324000    3.42902000      0.304235   -0.40724900   -0.00344600
Se   17.62008000   20.76473000   11.63429000      0.103325    0.86006200    0.18064200
Se    2.78512000    3.82856000    8.30885000     -0.392871   -0.58781900   -0.19436900
Se    0.80100000    3.40101000   16.65793000      0.059420   -0.24384100    1.20122100
Se    3.40791000    9.03077000    8.67516000     -0.583791   -0.16501000    0.25769100
Se    1.40639000    9.34940000   17.29024000     -0.520756   -0.11177500   -0.16679000
Se    4.07507000   18.08006000    8.38755000     -1.148482   -0.48666700   -1.40719800
Se    0.59062000   17.48253000   15.08696000     -0.892586   -0.29725800    0.26858500
Se    2.31721000   20.69285000   12.60239000     -0.335322    0.27494000   -0.51395400
Se    1.63673000   20.63233000   17.44745000      0.082679    0.69898100    1.08776600
Se    5.54631000    3.96564000    5.40835000      0.418820   -0.02698900   -0.67075400
Se    5.55970000    4.72572000    0.58621000     -0.542357    0.10067200   -0.14556900
Se    6.35610000   10.35003000    6.44294000     -0.556598   -0.84932000    0.14664000
Se    4.15871000    7.49494000   16.77820000      0.482974   -0.38645300   -0.22971300
Se    6.28091000   16.50899000   10.34326000      0.354804   -0.63938300   -0.08533500
Se    6.35170000   15.49784000   18.04005000      0.289242    0.68340200   -1.47485700
Se   10.17496000   17.91716000    6.55457000      0.397327    0.08579300    0.13948000
Se    6.10043000   20.78436000    0.27648000     -0.186122   -0.04978000   -0.58966500
Se   10.75921000    2.50549000    9.74855000      0.050602    0.37155200   -0.11700000
Se   12.90694000    4.01575000   17.09019000     -0.254690    0.63222600   -0.17959200
Se   13.53379000    7.97388000    6.86506000      0.194167   -0.79080000    0.11390400
Se   12.62703000   10.04029000   16.26365000      0.380719    0.41513900   -0.10844900
Se   12.54602000   15.31901000    8.00836000     -0.294817    0.16091600    1.41165700
Se   14.47506000   14.42082000   17.02468000     -0.373179   -0.55715300    0.27815000
Se   12.44405000   22.42686000    7.15149000     -0.486542    0.73369600   -0.81251900
Se   15.25789000   19.99711000   17.03635000     -0.172149    0.39618700    0.91990900
Se   13.69611000    4.29746000    9.17419000      0.142408   -0.31496800    1.00664800
Se   20.31408000    2.40449000   15.70534000      0.330337   -0.30190200   -0.21178700
Se   18.83117000    9.05942000   10.16064000      0.407820    0.06088700   -0.49804300
Se   17.50381000   10.75406000   15.27839000     -0.055384   -0.01010400    1.31524000
Se   15.70204000   16.49866000    6.96813000      0.758644    0.02367900    0.46852600
Se   19.56032000   13.62611000   16.30149000     -0.290437    0.32336600   -0.40826900
Se   18.64267000   20.42363000    8.12438000     -0.863886   -0.48158500   -1.65603900
Se   18.80290000   18.38260000    2.57720000      0.036479   -0.42281000    0.84854100
Se    4.57871000    0.50954000    7.39996000      0.477016    0.26483300   -0.28349400
Se    4.14680000    3.70502000   17.45251000     -0.117096   -0.39743000   -0.47621700
Se    7.40333000    7.56020000    8.53222000      0.155359    0.57121800    0.57393800
Se    4.77723000    8.65701000   18.85475000     -0.799244   -0.52380500    0.49719300
Se    6.08388000   15.80179000    5.92172000     -0.510675    1.72009000    0.39778500
Se    5.21337000   11.83887000   17.24860000      0.322681   -0.19031000    0.77597000
Se    1.97286000   20.87081000   10.13935000      0.635618   -0.56951100    0.56417900
Se    0.12787000   19.27411000    1.57309000      0.529656    0.32073900    0.67959800
Se    8.74602000   22.02934000    8.57936000      0.066723    0.13341800   -0.49786400
Se   10.06797000    3.19959000    1.40334000     -0.679156   -0.32680900   -0.73729700
Se   10.13306000    5.58110000    8.67293000      1.259363   -0.84450600   -0.61938500
Se    8.89384000    6.02357000   17.81711000      0.666505    0.43439100    0.02544200
Se    8.96440000   12.23871000    6.45238000      0.371858    0.61707100   -0.55768000
Se    8.15331000   13.66112000   17.49351000     -0.569658   -0.00672000    1.18228300
Se   11.75411000   20.87692000   10.14912000      0.170134   -0.26643500    0.50945700
Se   11.76268000   14.39128000   17.55009000     -0.562580   -0.16644900    0.44218200
Se   16.04092000    1.59507000    7.00566000      0.178010    0.55053400    0.54978900
Se   16.72526000    2.73563000   17.84995000      0.322214   -0.91774400    0.61390400
Se   15.69082000    5.14081000    6.73036000      0.485225    0.27568200    0.59274000
Se   15.41180000    7.52314000   14.51162000      0.648970    0.52946600    0.08467300
Se   15.33925000   10.92487000    8.77967000      0.569402   -0.18550200    0.04011600
Se   14.82757000   12.66746000    0.11654000     -0.531840    1.09013400    0.77186200
Se   13.79795000   18.60599000    5.43461000      1.594646    0.75219900    1.19091400
Se   17.12570000   17.93597000    0.06385000      1.119313   -0.79679300   -0.44976700
Se   20.73006000    0.66581000    7.90353000     -0.396616    0.74074100    0.12272900
Se    0.22159000    0.45489000   13.22275000      1.130847   -1.27459300    0.21494800
Se   21.05382000    7.42114000    8.41929000     -0.645336    0.33542900    0.96211700
Se   20.10407000    7.83988000   16.21492000      1.051851   -0.38770700    1.91916600
Se   22.39228000    9.97716000    7.21805000      0.009669   -0.40924800   -0.20526800
Se   21.06894000   11.58811000   17.49814000      0.306119    0.13381900   -0.09809300
Se   19.35514000   16.40080000    7.84893000      1.062954    0.56619000   -0.44472200
Se   19.33202000   17.34157000   15.56000000      0.812579    0.06022100    1.19815300
Se    3.65358000    1.95495000   11.33458000     -0.398863   -0.65397600    0.02747000
Se    2.66239000    0.39539000   14.78142000      0.345721    0.87740500    0.15573300
Se    0.03947000    5.99603000    7.13822000     -0.515078    0.53608100   -0.52509900
Se    1.35400000    9.88686000   14.41976000     -0.281316   -1.06173200   -0.21968100
Se    2.48659000   14.85233000    7.52586000     -0.280430   -1.12591500   -0.15268200
Se    1.52790000   14.08121000   16.86902000      1.047231   -1.15419900    1.24923400
Se   22.49570000   17.46691000    9.29334000      0.777926    0.90489300    0.04947600
Se    1.76834000   19.79754000   15.31017000      0.155625    0.05154400   -0.84156500
Se    6.92469000    0.13428000    3.62745000      0.118135    0.64843200    0.16376900
Se    8.35094000   21.76057000    1.47229000     -0.084411    0.25992800   -1.01692800
Se   10.31610000    8.79190000    6.70102000     -0.425367    0.05189900   -0.54731100
Se    4.52968000    5.90854000   14.21913000      0.173791    0.14573700    0.87455100
Se    5.74208000   12.63399000    4.60681000     -0.208450   -0.37121100   -0.04372800
Se    9.84006000   13.97371000   14.28094000     -0.058907    1.63213600   -1.54225500
Se    7.13824000   17.59518000    3.36551000      0.073055   -0.23518900    0.81706100
Se    7.22926000   16.44238000   14.69705000      0.563964    0.60599400    0.02112200
Se   13.38132000    0.17950000    3.74156000     -0.985118   -0.76984600    1.24615300
Se   13.50406000   22.43669000   16.23524000      0.787470    0.22058800    0.06297200
Se   11.28470000    9.91787000    4.43702000      0.733180   -0.82237000    0.91178300
Se   11.02909000    6.96773000   15.14652000     -0.275191    0.52054100    0.02235800
Se   12.71477000   12.79240000    5.24626000      0.257329   -0.62014500    0.48803200
Se   13.63545000   13.16688000   14.12040000     -0.876812    0.46445500   -0.46752400
Se   12.34877000   19.48979000    7.16432000     -0.032552   -0.61842000    0.11683500
Se   11.83771000   18.38692000    0.14340000      0.780242    1.01857500   -0.25490200
Se   21.31791000    1.49216000    5.34249000      0.197839   -0.24486600    0.33861900
Se   17.98169000    0.50243000   16.67277000     -0.209785   -1.16527800   -0.86780900
Se   19.40971000    4.92451000    6.22246000     -0.000698   -0.08413800    0.77505600
Se   18.42998000    5.37190000   15.65054000      0.306692    0.64439000    0.11955800
Se   19.69524000   11.55428000    5.07837000     -0.436409    0.32377400   -0.77965500
Se   17.49308000   12.96981000   12.12200000      0.120929    1.11038100   -0.61217000
Se   18.07096000   17.41453000    4.86352000     -0.227165   -0.07318100   -0.43452200
Se   17.69300000   19.98712000   14.49736000      0.001328   -0.27189600    0.87818500
Se    3.46016000    6.23941000    5.97184000     -0.061862    0.87731400   -0.71806500
Se    1.34776000    7.52774000   13.52102000     -0.127560    0.74103500    0.21866200
Se    2.69711000   11.18313000    5.39380000     -0.037426   -0.39471300    0.10075400
Se    4.41617000   10.90984000   14.03137000      0.813746   -0.65466700    0.36865500
Se    6.08671000   13.74408000    7.00022000     -0.490938   -1.07132700    0.69462800
Se    3.60874000   17.88805000   17.97102000     -0.564754   -0.70531600   -0.41746500
Se    0.93092000   19.68034000    7.15107000     -0.349801   -0.46962800   -0.16693200
Se    4.88700000    0.00983000   15.99040000     -0.362403   -0.54313800   -0.71369600
Se    9.51373000    1.36996000    5.18484000     -0.249572   -0.17995700    0.08240700
Se    8.26040000    2.98676000   17.86582000     -0.312766   -0.03216900    0.13345800
Se   11.05500000   12.49645000    8.94049000      0.279670   -0.48403400   -0.22969200
Se    9.42856000   11.31093000   17.22407000     -0.226156   -0.61470400   -0.94579200
Se    8.77093000   14.50945000    8.55436000     -0.129471    0.28961900    0.74441800
Se   11.49119000   17.59410000   14.73593000     -0.398601   -0.60293700   -0.48556500
Se   11.63951000   20.21806000    3.71440000     -0.565498   -0.68006300   -0.19907100
Se    8.80626000   17.99451000   17.70069000      0.264041    0.56936000   -1.02784400
Se   12.40196000    3.72878000    6.54238000     -0.815872   -0.22176100   -0.47162800
Se   17.32541000    3.36798000   15.59596000     -0.169642   -0.48054500   -1.02065200
Se   15.94110000    8.80219000    5.85925000      0.277203   -0.51836700   -0.10781200
Se   16.85569000    9.20360000   12.47054000     -0.705918    0.41248500   -0.64629800
Se   16.39038000   11.67287000    5.74944000      0.215553   -0.34019800   -0.01122200
Se   15.03453000   16.87302000   15.51655000     -0.346752    0.08565100   -0.62646100
Se   17.04389000    2.81265000    3.14186000     -0.220981   -0.11375900    0.30157200
Se   18.16699000    3.28464000   12.34600000     -0.303378    0.44244600   -0.06801100
Se    1.34769000    2.74807000    6.66482000     -0.018360    0.02934800    0.49119500
Se    0.89831000    4.45483000   14.57252000      0.590310   -0.37165400   -0.18208400
Se   19.28208000   12.58504000    8.45258000     -0.786154    0.51562100   -0.15115800
Se   21.12385000   11.67541000   14.15851000      0.409837    0.20831400    0.12422800
Se   21.08612000   13.39657000    7.12041000      0.660199   -0.15616500    0.04494800
Se   20.19744000   18.26788000   12.81635000      0.664730    0.53351900   -0.01769200
Se   20.42576000   19.12352000    8.95233000     -0.064126    0.22686300    0.98885300
Se   20.94903000   20.74718000   15.91957000     -0.045596    0.56114200    0.97485700
Se    3.22294000    1.59281000    4.29350000      0.000357   -0.16349800    0.30569100
Se    6.47911000    3.21137000   16.33728000     -0.590456    0.08188800    0.35533300
Se    1.80390000    6.32371000    0.53900000      0.114762    0.28256600    0.20509500
Se    5.94101000    9.16567000   12.78246000     -0.993137    0.14533000   -0.03278900
Se    2.00712000   12.90185000    2.59338000      0.409733   -1.02668000    0.96287900
Se    4.67295000   15.06652000   15.38947000      0.293820   -0.18869400   -0.48544500
Se    3.59004000   17.94042000    2.55267000     -0.329333   -0.02774900    0.69874400
Se    4.49986000   18.24822000   12.42318000      0.317994    0.48855400   -0.17076900
Se   10.26824000    0.62237000    1.65889000      0.929934    0.86180100    0.93797600
Se   10.13749000    0.63087000   16.13258000      0.464286   -0.91128300   -0.02136600
Se    9.82253000    7.40601000    2.70578000     -0.903785    0.33045200    0.18328700
Se    7.44134000    8.77014000   15.53574000      0.196804   -0.25535300    0.85643700
Se   10.75384000   11.85856000    3.19590000     -0.146996    0.82813000   -0.65570400
Se   10.37020000   11.41957000   11.54570000      0.523880   -0.25346200    0.13364300
Se   10.24324000   19.56582000    1.89773000      0.144975    0.09642000   -0.23914400
Se   14.93430000   18.70174000   13.83135000     -0.432455   -0.08654600    0.22429900
Se   15.69033000    3.22365000    5.28873000     -0.621851   -0.47450600    0.01940300
Se   13.94914000    1.91166000   14.89327000     -0.492504   -0.48954800    0.38118300
Se   15.21681000    5.88246000    3.42200000     -0.113106    0.73897900    0.15858800
Se   13.20889000    7.25889000   11.63717000     -0.786779    0.39712900   -0.29282000
Se   16.05818000   10.92503000    2.43425000      0.044600    0.06952000    0.07263100
Se   16.83049000   14.63313000   16.87213000      1.137086    0.07910900   -0.44115200
Se   14.98582000   15.75526000    4.47576000      0.097275   -0.25382100    0.63243700
Se   14.12323000   22.48772000   12.30173000      0.890530   -0.12891100    0.84834700
Se    1.96528000   21.00107000    5.52338000     -0.212155    1.00538100   -0.40994700
Se   19.65929000    1.19794000   12.52888000     -0.921347   -0.26814200    0.98961300
Se   22.34784000    7.19655000    3.90899000      0.539641    0.21308400    0.22933600
Se   19.92588000    8.63090000   14.07867000     -0.513087    0.28868800   -2.01504700
Se    1.27731000   13.28541000    5.78531000      0.208190    0.80527400    0.22649500
Se    0.22179000   14.85480000   15.26712000     -1.468492    0.40192900   -1.30848500
Se   21.57968000   16.76366000    5.76105000      0.068557   -0.25205100   -0.39782100
Se   20.97048000   20.82392000   10.96149000      0.282285    0.19187100   -0.18451200
Se    1.47773000    4.50206000    3.50902000      0.681056   -0.23058900   -0.11524100
Se    3.03014000    5.19016000   11.98891000     -0.457116    0.50041600   -0.89628900
Se   21.77991000   10.90232000    4.13978000     -0.088405    0.00280600   -0.43980900
Se    1.55815000   10.70928000   12.00611000     -1.191941   -0.56714100    0.11036900
Se    0.31939000   15.89661000   18.92652000     -0.039555   -1.12247400    0.68715900
Se    3.64612000   15.69319000   12.51753000     -0.780098   -0.43236700    0.21655600
Se    1.63107000    1.13881000    2.30030000      0.618447   -0.43564300   -0.70349100
Se    4.66596000   20.35043000   14.53235000      0.537696    0.39022600    0.28074100
Se    9.56549000    5.44893000    4.47687000      0.422185   -1.53011300    0.76896200
Se    7.97750000    2.79804000   14.22902000     -0.265355    0.17082600   -1.58594400
Se    6.61371000    7.45662000    5.82779000      0.381909    0.19829500   -0.29428800
Se    7.84542000   12.85385000   14.74202000     -0.906413   -1.29024600   -0.18082300
Se    6.17401000   15.16869000    1.40264000     -0.504284   -0.50815700    0.41179900
Se   11.07915000   15.34391000   11.29732000      0.917252    0.39079200    0.42025600
Se    7.49408000   20.40475000    6.08200000     -0.919497    0.10726500   -0.30674600
Se    7.39579000   20.45008000   15.02497000      0.473770    0.97733100   -0.93665400
Se   14.88735000    1.22211000    2.55358000      1.112432    1.40131200   -1.52718000
Se   11.06144000    4.62875000   12.15462000     -0.305398    0.05555500    0.10531100
Se   13.96162000    8.11461000    3.40149000      0.003332   -0.24018000   -0.07152500
Se   11.02870000   10.55970000   13.83105000     -0.216514   -0.40707200   -0.32854000
Se    9.39777000   14.16104000    4.91129000     -0.544006   -0.46765800    0.00986000
Se   15.07874000   15.48881000   11.07997000     -0.576371    1.74429800    0.01519200
Se   14.82494000   20.07763000    2.30425000      0.313963   -0.37319200   -0.66701800
Se   13.17985000   20.98347000   13.79388000     -0.294351   -0.88911100    0.28392100
Se   17.62849000    5.53340000    1.18626000     -0.031696    0.21934800   -0.09298400
Se   14.41874000    4.67732000   13.12796000      0.075280   -0.20189600    0.27577600
Se   18.33898000    8.50051000    3.35213000      0.000088   -0.65569400    0.41011900
Se   21.11984000   13.22077000   12.30623000      0.607591    0.41200400   -0.30259600
Se   21.65184000   14.26659000    3.26335000     -0.417300    0.17071700    0.29547500
Se   17.31799000   16.59681000   12.54427000     -0.461746    0.17185800   -0.74934800
Se   16.91377000   21.10321000    5.55808000      1.010609   -0.75579200   -1.87018700
Se   16.24201000    1.18795000   10.08530000      0.317678    0.21327400   -0.02378700
