384
22.54784000 22.54784000 18.93360000
Ge    4.66614000    4.93144000    9.78873000     -0.002824    0.07159400   -0.54204000
Ge    4.53795000    7.32239000    1.40782000     -0.884251   -0.59942600   -0.77105200
Ge    4.16506000   10.92876000    6.85444000     -0.760610    0.49143400    0.38837200
Ge    6.64326000   10.26636000   17.74252000     -0.179743    0.09747100    0.01229500
Ge    4.51410000   14.40480000   10.18687000      0.407607   -0.35872600   -0.18346800
Ge    8.44091000   17.81890000    1.08454000      0.301143   -0.18429800   -0.03399800
Ge    7.26680000   19.78749000    8.39380000     -0.280580   -0.34615400    0.67437600
Ge    5.43045000    0.14717000   17.36496000     -0.380572    0.08054000    0.71105200
Ge    8.37791000    7.06483000    9.89356000     -0.458449   -0.91215800    0.25764700
Ge   11.61373000    5.08330000   18.22459000     -0.425636    0.69043600    0.06064100
Ge   11.17711000    7.75595000    8.66459000      1.518777    0.70650700   -0.06062800
Ge    9.96298000   12.37240000    0.29154000      0.648750   -0.41421800   -0.19169400
Ge    9.84155000   17.02628000    9.05088000     -0.283958    0.03943900   -0.43176600
Ge   11.89337000   15.55721000    0.46097000      0.650299   -0.81229100    0.08872100
Ge    9.68954000    0.21203000   10.58465000     -0.170846   -1.07804900    0.47878400
Ge   15.25504000   21.34002000   18.74988000      0.020908    0.72386800    0.50739100
Ge   18.35525000    4.96522000   10.22926000      0.261967   -0.07981100   -1.57798900
Ge   18.61419000    8.39434000   17.14761000      0.225712   -0.19629800    0.22020400
Ge   18.60316000   14.78649000   10.51402000      0.223391   -0.11442000    0.65992600
Ge   17.36443000   11.27931000   17.96255000      0.071908    0.54920200    0.53827700
Ge   13.34910000   16.05428000    9.02616000      0.282001   -0.86140800   -1.03864300
Ge   17.00665000   14.73659000    0.09557000     -1.697333    0.39214200    0.19811600
Ge   15.95499000    4.15519000    9.45303000      0.414254   -0.04013100    0.63165400
Ge   18.78074000    3.44388000   18.46734000      0.111164    0.19615200    0.87636900
Ge    1.04660000    3.97808000    9.45358000     -0.492880   -0.17961000    0.07923500
Ge   21.58736000    4.05583000    3.00611000     -0.012432    1.09709000    0.35999700
Ge    0.28499000    9.87079000    9.05631000     -0.508396    0.85368500   -0.31490800
Ge   21.76722000    9.45924000   18.11102000      0.966081    0.47009400    0.33842900
Ge   21.22597000   15.78302000    8.60524000     -1.851949   -0.50685600    0.29298300
Ge    3.91823000   15.14494000   18.25914000     -0.004111   -0.58463700   -2.57005100
Ge   19.02430000   22.22252000   10.74150000      0.654195    0.84596600    0.00252900
Ge   21.88982000   20.31227000    2.85130000     -0.620417    0.04856800   -0.80834700
Ge    4.38580000    7.25444000    7.52321000     -1.343637   -0.74783500    0.49841600
Ge    1.67003000    6.96183000   16.63703000      0.697311    1.30236000    0.28724700
Ge   20.35105000    9.13920000    4.48016000      0.039591   -0.03819300   -0.35864000
Ge    3.14658000   12.60128000   15.30215000      0.037930    0.62439500   -0.83648600
Ge    4.82108000   19.23725000    4.79088000     -0.781139   -0.45533100    0.77804900
Ge    0.72085000   18.03367000   18.49270000      0.416105    0.67868400   -0.07320300
Ge    4.11670000   19.19427000   10.17992000      0.510369   -0.11389300   -1.87302500
Ge    1.65884000    1.40449000   18.29815000      0.521718    0.08680900    1.04373800
Ge    9.56314000    1.71221000    7.45318000      0.569124    0.46667500    0.40006200
Ge    7.49140000    5.83183000   16.93178000     -0.232425    0.25386300   -0.26449400
Ge    7.71665000   10.58945000    3.92787000      0.181820   -0.23724200    0.24594800
Ge   10.04172000    8.34499000   16.36001000     -0.340161   -0.86754200    0.61336800
Ge    7.22447000   16.32097000    8.45319000     -1.333280   -0.11115500   -0.04497300
Ge   10.05540000   15.36497000   15.75288000     -0.367523    0.51693900    0.13439100
Ge   10.46323000   21.15484000    6.15912000     -0.524014   -0.41307000    0.92569000
Ge   10.54167000   22.26138000   14.20398000     -0.043561   -0.09036700    0.57965200
Ge   12.36554000    7.56337000    4.61846000      0.286380    0.49449400    0.60138000
Ge   15.16537000    4.46253000   16.20308000     -0.042513    0.84182400    0.59682400
Ge   14.26626000   10.08865000    7.03724000     -0.823727   -0.30141900   -0.84710100
Ge   15.30882000   12.37102000   15.22818000      0.151358   -0.34233800   -0.04229100
Ge   12.59322000   15.26271000    5.48692000      0.857950   -0.22976500   -0.25329000
Ge   15.02527000   18.24958000    0.55352000     -0.205975   -0.47360600   -0.75387000
Ge   14.75223000    0.29267000    9.91822000     -0.039800   -0.29135500    0.34910200
Ge   17.13736000   22.01443000   13.69662000     -0.442556    0.47799900   -0.00817100
Ge   20.84009000    4.40187000    8.68072000      0.265778    0.49171100    0.20984900
Ge   19.67121000    5.74027000   13.79354000      0.302023    0.15612400    0.61703900
Ge   18.85056000   10.62239000    7.78803000     -0.413151    0.06984200   -0.65223100
Ge   20.91472000   15.03977000   16.70725000      0.788392    0.52485600   -0.17036700
Ge   19.40357000   15.68351000    5.29603000     -0.313921    0.44145700    0.35344400
Ge   17.54968000   17.81959000   16.65594000     -0.847417    0.18016300    0.38938100
Ge    0.93341000    1.02034000    7.48507000     -0.602905    0.10963400   -0.30578800
Ge   18.79151000   21.11023000   17.06621000      0.402613   -0.20902800    0.07692300
Ge    7.14661000    3.32943000    6.76137000      0.562002   -0.43693600   -0.42378400
Ge    3.78076000    2.64257000   12.93464000     -0.298316    0.24677500   -0.09005500
Ge    0.10740000    9.09773000    5.95727000      0.125656    0.10316300   -0.24721400
Ge    2.25544000    7.82306000   11.27739000      0.241411   -0.17677700   -0.42414800
Ge    0.87560000   15.80208000    3.69869000     -0.107929   -0.20462100    0.27822600
Ge    2.60999000   18.11438000   14.88278000     -0.069560   -0.42216500    0.75911300
Ge    3.94424000    0.21275000    8.97788000     -0.878522    0.48348600    1.13025300
Ge    7.65414000   17.84843000   16.96000000      0.619949   -0.42051000   -0.41519800
Ge    7.39433000    3.51053000    2.77478000      0.457427    0.01343500   -0.01000900
Ge    9.95619000    2.96402000   16.92323000     -0.041196   -0.55661100   -0.16767300
Ge    8.67117000    8.17916000    4.57928000     -0.980832   -0.16421300   -1.81010200
Ge    7.16539000    9.65324000   12.71672000     -0.068044   -0.17355000    1.10259500
Ge    6.44548000   14.43439000    5.06818000      1.283702    0.18577600   -0.21205500
Ge   11.16487000   11.69227000   15.49386000      1.549132    1.33587200   -0.79973700
Ge    8.06122000   20.26237000    3.77181000      0.025386    1.29381200   -0.66124500
Ge    9.45463000   16.58674000   12.75712000     -0.653533    0.27878300   -0.25817200
Ge   11.79912000    1.83534000    5.34467000      0.170127   -0.23882000   -0.44823100
Ge   12.53617000    4.10094000   14.05279000      0.503877    0.76893600   -0.64774600
Ge   17.15253000    4.60694000    5.12127000      1.152774    2.77758400   -0.25897600
Ge   13.72811000    8.31077000   13.86237000      0.342324    1.13993100    0.44688700
Ge   15.08329000   12.95409000    3.68670000     -0.405250    0.66467700   -0.16887100
Ge   13.48681000   16.38440000   12.76885000     -0.332232   -0.49885200   -0.58809700
Ge   11.38562000   18.37454000    3.86100000     -0.373761   -1.32065700    0.15379000
Ge   10.96162000   19.69409000   16.71259000      0.130349   -0.38059100   -0.40389200
Ge   22.24530000    4.49045000    5.76830000     -0.304281    0.35660400   -0.23666600
Ge   22.36307000    2.83072000   13.87561000      0.918551   -0.60981800   -0.50968900
Ge   19.04301000    7.70884000    6.74777000     -0.610489    0.18144800    0.27814500
Ge   17.47844000   10.33427000   12.68124000      1.018268    0.86983100    0.16750000
Ge   20.46737000   16.57688000    1.31038000     -0.163230    0.24468900    0.12590700
Ge   18.70554000   15.21839000   13.93318000      0.106051    0.74760100   -0.00862900
Ge   19.10059000   20.31142000    5.54287000     -0.342258   -0.38916400   -0.98965900
Ge   21.85473000   21.16063000   12.51685000      0.106930    0.72076400    0.78246500
Ge    4.38839000    2.56913000    3.06684000     -0.497997   -0.21770300   -0.04434500
Ge    5.97532000    0.89454000   13.08923000      0.455367   -0.06667800    0.33233500
Ge    4.53686000    7.79223000    4.17686000     -0.749202   -0.13459100   -0.10462400
Ge    6.72772000    5.30196000   14.47148000     -0.239971   -0.60649000    0.56394000
Ge    4.21950000   12.25410000    1.66224000      0.348284    0.41012300   -0.40014100
Ge    4.38270000   10.73798000   12.72112000     -0.251774    0.20587800   -0.72675100
Ge    4.51330000   21.81182000    6.68970000      0.206554   -0.27776000   -0.97682700
Ge    6.51635000   19.46957000   12.52553000      1.062857    0.36398400   -0.10160200
Ge   11.02513000    3.69803000    3.05240000      0.256984   -0.20636700   -0.25736000
Ge    8.35531000    4.40969000   12.59671000      0.328762   -0.50526300   -0.30132500
Ge   11.50574000    7.96703000    1.23706000      0.110548    0.41914100    0.63414000
Ge   10.88547000    7.16745000   12.80497000     -0.848671    0.20432400   -2.23017900
Ge    8.19961000   13.98282000    1.36983000     -0.343255   -0.08641000    0.85019800
Ge    8.44241000   13.75461000   10.45524000      0.782398   -0.84608500   -0.43643500
Ge   11.80023000   21.30987000    1.31457000      0.532470    0.23020200   -0.16888300
Ge   11.18188000   19.80673000   12.85007000     -0.221386   -0.50284200   -0.57034400
Ge   22.20493000    0.27850000   17.21928000     -0.769939    0.21025900   -1.50801500
Ge   12.59373000    2.25270000   10.78677000      0.032115   -0.01816200   -1.31281400
Ge   16.64387000    7.44489000    1.87993000     -0.116635    0.08694100   -0.25437800
Ge   15.06442000    7.97280000   10.36056000      0.732422   -0.44379900    0.42156700
Ge   18.03938000   12.05857000    1.93204000      0.140077   -0.15632400    0.44240100
Ge   16.72473000   16.03646000    8.89081000     -0.175250    0.46634900   -0.03734600
Ge   16.97910000   20.43707000    2.88059000     -1.026089    1.02713900   -2.70733600
Ge   13.82822000   19.48687000   10.14639000      0.882452   -0.05429300   -0.05690300
Ge   21.51667000    1.77615000    2.24287000      0.723616   -0.22248700   -0.90230900
Ge   21.09216000    1.46034000   10.26610000      0.546268   -0.90875900   -0.55325700
Ge    1.16821000    8.65662000    1.38239000     -0.789960    1.07956900    0.36753000
Ge   21.59560000    9.13105000   13.06128000      1.107590   -0.24612600   -0.71038500
Ge   20.70643000   13.13060000    1.41649000     -0.410366   -0.38358600    0.34059200
Ge    0.83571000   14.38712000   10.03570000      0.031185    0.75092300    0.40928600
Ge    1.75737000   19.02607000    4.60805000     -0.407544   -0.15901100   -0.04891500
Ge   18.94633000   18.99386000   11.34863000     -0.215632    0.91987600   -1.12243100
Se   21.12011000    0.29054000    0.43433000     -0.859920   -0.37674700    0.52268000
Se    1.41095000    1.50344000   10.00954000     -0.391081    0.47509100   -0.62425100
Se    2.91249000   10.07675000    2.81923000     -0.343329   -0.78641900    0.24943200
Se   22.29473000    6.95275000   11.69663000     -0.041975    0.13255100    0.60281000
Se   22.17935000   12.68053000   18.34652000     -0.608283   -0.53603500   -0.16911900
Se    1.88708000   12.47956000    9.05034000      0.201552    0.12414500    0.14903400
Se    2.54544000   16.69973000    5.69253000      0.501578    0.24710800   -0.44705600
Se    1.44052000   16.89380000   11.20251000      0.116741   -1.09417200   -0.36217800
Se    5.48636000    2.86968000    0.92966000      0.335367   -0.08086200   -0.17880300
Se    6.30267000    3.76588000   11.24795000     -0.042652   -0.73858400    0.40761500
Se    6.77687000    6.09425000    2.06527000      0.009318   -0.36696000    0.00522700
Se    7.96674000    6.85521000   12.40435000      0.379248    0.77546500    0.33543300
Se    7.83249000   10.46612000    1.28277000      0.308087   -0.07936700   -0.66857000
Se    6.40037000   12.93202000   13.36360000     -0.447832   -0.30957100    1.00539300
Se    6.00116000   20.14530000    2.26970000     -0.014812    0.50162300   -0.52415000
Se    8.74161000   18.94573000   10.68710000     -0.325532   -0.41391600    0.03767600
Se   12.65399000    1.37557000    0.66127000     -0.865487   -0.89588900   -1.66887400
Se   11.86314000    1.83271000   13.08289000      1.217443   -0.56642000    0.85232200
Se   12.41991000    7.63108000   17.96805000      0.357836   -0.18842400   -0.38557400
Se    9.30157000    9.36388000    9.98365000      1.077243    0.50080100    0.29704700
Se   12.85823000   13.27184000    1.97337000      0.610448    0.35151700   -0.21993900
Se   12.03708000   10.87155000    8.23894000      0.367965    0.33713400    0.68004200
Se   13.85220000   16.92703000    2.27270000      0.053628   -1.05390600    0.22695500
Se   12.00489000   17.62763000   10.25560000      0.363220    0.54202500    0.64890800
Se   18.88875000    3.32436000    2.98534000     -0.754765    1.24926600   -1.76560100
Se   16.24978000    1.82343000   12.53166000     -0.024940   -0.11037600   -0.60136100
Se   16.25323000    8.35634000   17.95047000     -0.866906   -0.70439000    0.49687500
Se   17.55074000    5.87130000   12.24503000     -0.254711   -0.11858300    1.30397600
Se   18.53922000    9.50079000    0.66004000     -0.143581    0.51287700   -0.15494600
Se   17.69744000   14.13249000    6.77321000      0.436197    0.79568500    0.82666400
Se   20.52663000   19.22336000    0.53919000      0.333487    0.20430500    0.30996300
Se   15.90396000   18.52450000    8.88455000     -0.401093    0.19607100    0.08752500
Se    1.45612000    2.75937000    1.91270000      0.110741   -0.68348300   -0.46355000
Se    5.48221000    7.34831000   10.12708000     -0.631371    0.39404000    0.49348600
Se    5.58557000   10.02600000    2.24977000     -0.489668    0.69184700   -0.20394500
Se    4.64900000   11.68160000    9.98416000      0.366173    0.39967900    0.41809400
Se    2.80515000   15.25121000    1.35748000     -0.016486    1.23919700    1.60078200
Se    2.06885000   13.44998000   13.00936000      0.243708   -0.22532400    0.12479600
Se    3.00824000   21.25036000   18.50496000      0.859788    0.75532100    0.69149900
Se    5.57225000   21.27090000   10.08957000      1.644001   -1.70660200    0.01803500
Se   12.23567000    5.51546000    1.65817000      0.650903   -0.11121900    0.62447300
Se    6.49063000    5.38574000    7.87461000     -0.399631    0.32220800    0.32081300
Se   11.71820000   10.64389000    1.00343000     -0.516611   -0.17914600    0.41445100
Se    7.01483000   10.81641000   10.55961000     -0.592896    1.07952300   -0.34695400
Se    9.89784000   15.84081000    1.99562000     -0.181453   -0.22650600    0.11059000
Se   13.04270000   12.84289000   12.74637000      0.169910    0.03020100    0.21155400
Se    9.97129000   21.24589000   18.49431000     -0.104231    0.73437200   -0.69684300
Se    8.43661000   22.22378000   12.72196000     -0.222759    0.16639600   -1.17392300
Se   15.66930000    4.56390000    0.06049000     -0.371420   -0.05043300    0.20594600
Se   16.98949000    6.78958000    8.83646000      0.528515    0.06825000   -0.04143000
Se   14.62779000   10.77002000    0.10634000      0.341838   -0.56283300   -0.69673600
Se   15.07044000   11.44490000   12.21776000     -0.340788    0.30246900   -0.05734800
Se   17.68970000   14.69258000    2.93197000      0.237010    0.02021700   -0.07673200
Se   15.70428000   12.14743000    9.93620000     -0.264080   -0.27437200    0.42442700
Se   17.10919000   22.32434000    1.01440000      0.491737   -0.65188000    0.13426600
Se   14.81372000   21.21154000    7.61671000      0.315091   -0.51442800    0.55681500
Se   21.83064000    4.98173000    0.79716000     -0.513671    0.49280300   -0.04483400
Se   20.98102000    3.32999000   11.76019000     -0.481829    0.87126200    0.21501400
Se   20.31096000    6.93918000    1.54967000      0.791465   -0.57244600    0.15315700
Se   21.10941000   10.16550000   10.93832000     -0.967909    1.03915600   -0.29581100
Se   19.32050000   14.73359000   18.71197000      1.196838   -0.00149400    0.40269800
Se   20.69593000   16.67425000   12.60929000      0.359596   -1.23453000   -0.75753600
Se   20.82120000    0.45363000    4.03302000     -0.159572   -0.71216200    0.86051600
Se   17.11672000   20.79091000   10.96393000     -0.384676   -0.64755200    0.53289000
Se    2.75642000    4.68789000    7.92658000      0.742332   -0.00797200    0.51147500
Se   21.88983000    3.42483000   16.86678000      1.582955    0.99971100    2.11414500
Se    2.66722000    9.65215000    8.59144000      0.484211   -0.54843500    0.02183400
Se    1.62165000    9.51386000   16.95644000     -1.131421    0.06091800    0.24533400
Se    4.79918000   17.36088000    8.11426000      0.415202    0.54150300    0.77195100
Se    0.13825000   18.21852000   15.94471000      0.135141   -0.91260400   -0.78895800
Se    1.25976000   19.67822000   13.02618000      0.788656   -0.69574100   -0.28257700
Se    1.14721000   20.90333000   17.26810000     -0.244418   -1.13364400   -0.36077400
Se    5.45133000    3.85112000    4.92099000     -0.086273   -0.13413800    0.01907000
Se    5.34207000    5.74913000   18.08716000     -0.037307   -0.05086800    0.46768200
Se    5.54534000    8.88486000    6.22850000      1.043063    1.13122400   -0.54639600
Se    4.29850000    7.37869000   15.92600000     -0.338711   -0.39177400    0.15561500
Se    6.75455000   15.12262000   11.37654000     -0.891715    1.00698400   -0.32210200
Se    6.14911000   16.35227000   18.46248000      0.794371    0.49782500   -0.10025600
Se   10.01241000   18.16506000    6.42948000      0.512729    0.12502100    0.41522300
Se    6.52467000   19.72066000   18.21002000     -0.395665    0.77862600    0.18596700
Se    9.95386000    2.51553000   10.15927000      0.105189    0.22952900   -0.78031700
Se   12.77520000    3.29941000   16.40490000      0.198272   -0.41460100    0.31877500
Se   13.42896000    7.59593000    7.17678000     -0.275155   -0.03126100   -0.52033500
Se   13.89343000   10.11369000   16.07438000     -0.588896    1.16298800   -0.25205100
Se   11.60040000   14.89000000    7.67632000     -0.319221   -0.05331000    1.04892700
Se   14.36116000   16.32983000   17.80061000     -0.323947   -1.29978200    0.68341400
Se   12.11873000    0.16914000    7.18476000     -0.565698    0.84174500    0.35849600
Se   14.91192000   19.49030000   17.08210000      0.016140    1.36152600    0.24307000
Se   13.74095000    4.56350000   10.30968000      0.292969    0.14461900   -0.03309700
Se   20.45187000    2.56591000   15.45194000     -1.841571   -1.44868400   -1.31643300
Se   18.50360000   10.02014000   10.14260000      0.773981   -0.62998200    1.29043600
Se   17.49266000   10.29157000   15.72764000      0.097397    0.62605200   -0.68540500
Se   14.65244000   16.45245000    6.84568000     -0.374589   -0.17624400    0.08258100
Se   19.69470000   13.29700000   15.19190000     -0.072791   -0.29145700   -0.37112700
Se   18.78046000   21.04450000    7.86082000      0.284507   -0.15146800    0.93605300
Se   18.74359000   19.04530000    2.73274000      1.342456   -1.55970200    0.14644100
Se    5.63193000    1.47302000    7.61751000     -0.319770   -0.40248300    0.08094200
Se    3.69019000    2.48514000   17.73011000      0.743057    0.55788000   -1.01391100
Se    7.63933000    8.81842000    8.33470000     -0.078537    0.20661800   -1.44468900
Se    4.46498000    9.34599000   18.81721000      0.447267    0.62841600   -0.72161600
Se    6.42856000   17.11219000    5.35458000      0.400329    0.32536200    0.59930000
Se    5.53086000   12.89915000   18.18769000     -0.590356   -0.91334100    0.43810900
Se    2.03832000   20.41267000   10.18228000     -0.480031   -0.54841900   -0.34566200
Se    1.44560000   19.34161000    1.95175000      0.588194   -0.14274000    0.42523000
Se    8.55730000   21.93310000    8.55723000      0.614129    0.43172900   -0.07104000
Se    9.50705000    3.54728000    1.14125000     -0.585960   -0.47252900   -0.25048300
Se    9.97608000    5.67705000    8.53597000     -0.016169   -1.19229200    0.10405800
Se    9.34610000    6.43471000   18.43491000     -0.406335    0.21288100   -0.51446300
Se    9.43204000   12.33800000    5.71898000      0.151351   -1.34323000    0.21910100
Se    7.86923000   14.71573000   17.96573000     -0.312841    0.17966900   -0.54438700
Se   11.98388000   21.91970000   11.08405000     -0.791155   -0.39900600   -0.45516500
Se   11.25223000   13.68833000   17.45237000      0.211881    0.57910500    0.40687400
Se   15.27409000    0.98961000    7.61505000      0.530126    0.18827800   -0.41993900
Se   16.78321000    2.68318000    1.03038000     -0.316287    0.68700300   -0.81936300
Se   15.57916000    4.92215000    7.15664000      0.177775    0.75750200   -0.05619100
Se   15.40339000    7.18768000   16.09392000     -0.342233   -0.95178900   -0.47532600
Se   15.95078000    9.68464000    8.72845000      0.519189    0.56530500    0.63451500
Se   14.25868000   13.03875000   18.89988000     -0.207255    0.62714800    0.44702700
Se   13.52541000   19.10117000    5.47107000      0.614755   -0.29064600   -0.56032800
Se   17.40760000   17.78862000    0.32612000      0.509986   -0.28008400   -0.53970200
Se   21.09394000    2.06625000    7.71791000     -0.408751   -0.50368100    0.21779700
Se    0.79933000    0.21559000   13.82187000     -0.475738    1.27934600   -0.36665300
Se   20.85137000    7.27726000    9.47270000     -0.163840   -0.52445600   -0.54233300
Se   21.18818000    7.32321000   17.25445000      0.259843   -0.36352100   -0.25913700
Se   21.21381000   10.99955000    7.20405000      0.916677   -0.16086200    0.34805500
Se   20.17872000   11.70524000   17.19350000      0.545636   -1.09992600    0.61657300
Se   19.14001000   17.27453000    7.72873000     -0.000088   -0.44431900    0.34703800
Se   19.64008000   17.13624000   15.88803000      0.712162   -0.28503300    0.12780000
Se    3.59781000    0.34827000   11.58689000      0.399615    0.78459700    0.68032700
Se    2.61322000    2.23880000   15.28421000     -0.145772   -0.34914700    0.01167200
Se    0.38383000    7.54501000    8.15077000     -0.654979   -0.54751500    0.04498200
Se    1.27089000    9.81078000   14.08527000     -1.293297   -0.22447900    1.42309500
Se    4.06279000   14.38804000    5.03083000     -1.576002    0.23439500   -0.42487300
Se    1.83813000   13.63199000   16.93695000      0.609160    0.63722800    0.30029600
Se    0.66886000   16.87959000    8.59448000      1.315249    0.88216900    0.22638300
Se    2.97561000   20.57675000   14.50720000     -0.105505   -0.02141900    0.00418300
Se    6.93270000    1.01126000    3.57673000     -1.744915    1.09165700    1.60324700
Se    7.77492000    0.15754000    1.79195000      0.597270   -1.06787800   -2.50512000
Se    9.87973000    8.56850000    6.57966000      0.044950    0.55857000    0.08874700
Se    4.21703000    5.34443000   14.53835000      0.481218    0.05058400    0.13973400
Se    5.50750000   11.93738000    5.00866000      0.236260    0.25254300   -0.77126500
Se    9.36520000   13.90178000   13.68098000      0.757737   -0.39193300   -0.09571500
Se    8.43199000   17.92754000    3.90336000     -0.539854   -1.74066800    0.55039000
Se    7.60335000   16.52968000   14.80999000      0.013078    0.12516400    0.14528400
Se   13.90985000    0.75449000    4.19461000     -0.404393    0.34209800   -0.77170000
Se   13.81268000   22.09058000   16.40517000      0.257233    0.19672700    0.13369000
Se   11.82465000   10.11014000    5.38209000     -0.158080   -0.50351600   -0.62824300
Se   12.07328000    6.66144000   14.72173000      0.245387   -1.36916800    2.16442900
Se   13.60696000   12.74510000    5.57622000     -0.536288    0.36496400    0.14863300
Se   14.25624000   14.71964000   14.49281000     -0.368280   -0.62565400    0.03843400
Se   12.46081000   19.24870000    7.47249000     -1.158026   -0.27246800    0.42067100
Se   12.59356000   18.74093000    0.28645000     -1.165502    0.50871500    0.31403800
Se   19.78396000    2.65488000    4.90811000      1.365940   -1.68890900    2.39793000
Se   17.40305000    0.53458000   16.39481000      0.041273    0.23105800   -0.22646000
Se   19.63541000    5.22737000    6.15040000     -0.889533    0.11008000    0.21559500
Se   18.64841000    5.62062000   16.47729000      1.099023    1.06939000   -1.51222900
Se   19.23308000   11.54678000    4.29699000      0.010359    0.06434500   -0.56651100
Se   17.19390000   13.93588000   12.59408000      0.258817   -0.10546700   -0.68145600
Se   17.68704000   18.02986000    5.16516000      0.598937    0.50995400   -0.15404400
Se   17.63081000   19.95185000   15.17667000     -0.107441   -1.21581000    0.29173900
Se    2.56772000    7.19670000    5.60593000      0.140362   -0.27564100    0.11528100
Se    1.63390000    6.89446000   13.57556000     -0.236829   -0.44770300    0.19827800
Se    1.45799000   11.57639000    5.55165000      0.698748   -0.72503600   -0.25782000
Se    3.87441000   10.29199000   15.18928000      0.524273   -0.06846400    0.14363800
Se    6.13467000   14.08929000    7.76056000      0.788282    0.29114300    0.15312800
Se    3.50682000   17.87947000   17.51451000     -0.761582   -0.61583800    0.22760300
Se    1.50235000   19.76596000    7.69663000      0.324942   -0.69811700    0.44950200
Se    6.77935000   21.82059000   15.46430000     -0.312231    0.08635100   -0.87317500
Se    9.26890000    0.51499000    4.75644000      0.827793    0.13328300    0.81807700
Se    7.45364000    1.70555000   17.48053000      0.091157    0.69764000   -0.00642500
Se   12.74751000   12.40445000    9.89712000     -0.468647   -0.08888300   -0.34272500
Se    9.81047000   10.77390000   17.18522000     -1.459991   -0.83723300    1.31642200
Se    8.94066000   13.45043000    7.63679000     -0.545917    0.58761200    1.59423300
Se   11.40658000   17.18512000   14.21283000      0.528545    0.18884100    0.06929600
Se   11.98724000   20.67306000    4.21455000      0.897657    0.84726400   -0.08732400
Se   10.67799000   17.27920000   18.03748000     -1.170578    1.44836400   -0.90047100
Se   11.33240000    3.92574000    6.83498000     -0.287382   -0.32272100   -0.25389400
Se   17.55721000    3.60544000   16.27324000     -0.279793   -1.24396800   -0.58451300
Se   16.80291000    9.18470000    5.56403000      0.288355   -0.77212800   -0.15526400
Se   16.20521000    8.35023000   12.90089000      0.101402   -0.87349400   -0.76771800
Se   17.15071000   12.07945000    5.88497000     -0.456053   -1.18792000   -0.67576300
Se   15.03935000   17.41346000   15.90850000      0.355637   -0.99877200   -0.94750100
Se   16.57749000    2.45464000    4.85281000      0.735894   -2.56028600   -1.03965200
Se   18.22730000    3.47866000   13.31730000      0.168171    0.66787400   -0.28811400
Se    1.27375000    2.74933000    5.68435000      0.962429   -0.70709400   -0.10097500
Se    0.07445000    5.27975000   15.48885000     -0.310169   -0.51189200   -0.80120600
Se   18.97865000   13.00726000    8.76062000     -0.165243    0.10416100   -0.75632300
Se   21.54215000   12.65381000   13.73322000     -0.005161    0.16961400   -0.08543600
Se   21.55023000   14.82294000    6.45992000     -0.010180   -0.55979900   -0.35996100
Se   20.24908000   18.80343000   13.38336000     -0.011718    1.08478400    0.48797800
Se   20.39089000   19.44156000    8.77804000     -0.664430   -0.04150100   -0.02098200
Se   21.10451000   20.83162000   15.92685000     -0.508368    0.40953100    0.26783600
Se    3.37337000    0.39454000    4.23775000      0.404941    0.35533800    0.32297100
Se    6.96555000    2.55802000   15.17590000      0.017360   -0.11622100    0.02362300
Se    2.15142000    6.82835000    0.17093000      0.691114   -1.40805200    0.61402300
Se    4.84699000    8.12543000   12.60124000     -0.185733    0.12579000   -0.59814100
Se    1.33569000   13.65643000    2.14598000      0.025444   -1.13660200    0.22147300
Se    5.10108000   14.04447000   14.99903000      0.367072    0.20876300   -0.14342400
Se    4.82034000   18.12405000    2.64358000     -0.011741   -0.55717700   -0.88540300
Se    4.65089000   18.03264000   12.06709000      0.260253   -0.76656300    0.98981300
Se   10.31673000    0.82753000    2.64429000      0.663391   -0.28767100   -0.35469200
Se   11.23503000    0.72978000   16.91900000     -1.000644   -0.16756400    0.13256300
Se    9.08408000    6.82552000    2.26023000      1.230244    1.11309300    0.60832600
Se    7.34230000    8.13355000   15.85094000      0.379912    0.20482900    0.07855300
Se   10.32041000   10.73391000    3.42083000      0.684641   -0.02333500   -0.24654300
Se    9.60820000   10.36348000   12.43992000      0.452214    0.51952700   -0.00392300
Se    9.85944000   19.80596000    1.98103000     -0.437791   -0.84680800   -0.36111100
Se   15.03504000   18.37397000   12.58315000     -0.063954    0.14617500   -0.09844800
Se   14.70247000    3.03235000    5.98064000     -2.265207    0.23410000    0.13236700
Se   14.84705000    1.46234000   15.70939000     -0.202458    0.05575500   -0.21775900
Se   15.64191000    6.09198000    3.81625000     -0.176585   -0.40714600    0.23696100
Se   12.74181000    8.26298000   10.85742000     -0.894121   -0.11315600    0.80185600
Se   15.60513000   10.75493000    2.53452000      0.399130   -0.05343200    0.24468700
Se   17.14695000   14.38121000   16.53103000     -0.245619   -0.46335600   -0.69628800
Se   15.61353000   15.76397000    3.60950000     -0.247843    0.04384300    0.40018200
Se   14.49954000   22.12693000   12.78168000      0.398243    0.17436200    0.04250400
Se    0.81507000   21.20584000    6.03311000      0.032824    0.90894100   -0.29231200
Se   19.65705000   22.29771000   13.24852000      0.209759    0.26314200   -0.36533600
Se    0.05642000    7.47624000    3.23952000      0.093718   -0.02984400    0.44309200
Se   19.89423000    8.51266000   14.36544000     -1.557172   -0.58426700    0.39018100
Se    1.75931000   13.91074000    5.79891000     -0.838182    0.41308200    0.24009200
Se   22.53503000   15.82490000   14.73929000     -0.032339    0.41956400    0.56382300
Se   21.68682000   18.57046000    4.56001000      0.254871   -0.42049700    0.21986500
Se   21.96847000   21.10014000   10.06448000     -0.794828    0.43394300   -0.20575900
Se    3.52014000    4.84575000    3.24283000     -0.437575    0.52003600   -0.02545600
Se    1.71226000    4.04058000   11.86623000      0.975167    0.21033600    0.38414900
Se   21.08358000   10.68185000    2.65077000      0.408814    0.20799600   -0.01652200
Se    1.63145000   10.26210000   11.86132000      1.246030    0.49737700   -1.44135700
Se   22.51585000   15.74704000    0.07257000     -0.156532    0.62539000   -0.46160100
Se    3.05304000   15.64852000   12.74317000      0.196591   -0.55523600    0.00406200
Se    2.01887000   22.53655000    2.46492000     -0.489079   -0.18240700   -0.55021300
Se    5.72227000   19.67246000   15.77883000     -0.248019    0.16756200    0.07295200
Se    9.39841000    4.38768000    4.77167000     -0.329295    0.17228100    0.28402600
Se    9.87130000    2.50399000   14.17020000     -1.594921    0.48337100    0.65325400
Se    6.91561000    6.29470000    4.52358000     -0.295795    0.62017100    0.80341700
Se    8.25878000   12.30623000   15.44285000      0.004010   -0.22705300   -0.67443200
Se    5.73567000   14.44726000    2.17651000      0.484146   -0.27433400    0.59803300
Se   10.62726000   14.87916000   11.23266000     -0.160358   -0.19382900   -0.12823100
Se    6.73150000   20.63641000    5.83209000     -0.341102    0.85867800    1.32866200
Se    9.21613000   19.77565000   14.58621000      0.461984    0.25399700    1.05086400
Se   13.80930000    2.33934000    2.25043000      0.922194    0.59819400    2.15568700
Se   11.39992000    4.89366000   11.82628000     -0.687610    0.24140600    0.28020700
Se   14.00086000    8.54796000    2.90270000     -0.576692   -0.53999200   -0.25886400
Se   11.05727000    9.54923000   14.23487000     -0.150983   -0.16500700   -0.82459500
Se    9.00156000   14.09428000    4.36114000     -0.230978    1.00709400   -0.98842400
Se   14.65648000   14.71884000   10.66793000      0.183246    1.07936000   -0.48517600
Se   14.66914000   20.12636000    2.19277000      0.298743    0.08979600   -0.31922600
Se   13.57901000   20.18527000   13.81768000      0.013444   -0.40045000    0.52416700
Se   18.37591000    6.25361000    0.27346000     -0.258814   -0.85561800    0.71764100
Se   14.98973000    4.40185000   13.69663000     -0.474318    0.21114300    0.13359900
Se   18.34055000    7.61549000    3.90506000      0.184123    0.75245500    0.27272400
Se   21.20069000   13.97531000   11.25364000     -0.284968    0.13926100    0.16577400
Se   20.94723000   14.79612000    3.45985000      0.266916   -0.12285500   -0.66182000
Se   17.51920000   17.13286000   11.34347000     -0.590724   -0.28358500    0.59169400
Se   16.75264000   21.50833000    4.74074000      0.381023    1.28107100    2.85524200
Se   17.15224000    1.64366000   10.18868000     -0.317621   -0.43053800    0.64804700
