384
22.54784000 22.54784000 18.93360000
Ge    4.66307000    4.94164000    9.74495000      0.161490    0.24010200   -0.30945500
Ge    4.55265000    7.33313000    1.35897000     -0.742124   -0.67213600   -0.59866400
Ge    4.17553000   10.93404000    6.82455000     -1.062925    0.29722600    0.79595400
Ge    6.60959000   10.21874000   17.71104000     -0.094348    0.18761700   -0.04976200
Ge    4.51597000   14.38487000   10.24101000      0.354829   -0.21489800   -0.14158800
Ge    8.46700000   17.79467000    1.09158000      0.130987   -0.13486400   -0.10849700
Ge    7.28159000   19.78472000    8.35841000     -0.294398   -0.55368000    0.80658900
Ge    5.42236000    0.16579000   17.31728000     -0.320187    0.18339400    0.61972400
Ge    8.37938000    7.14613000    9.93697000     -0.561218   -1.36189200    0.14211700
Ge   11.60709000    5.05890000   18.25476000     -0.420665    0.93092900    0.20314600
Ge   11.20246000    7.79551000    8.62132000      1.309259    0.36054300    0.27483400
Ge    9.92722000   12.41921000    0.31889000      0.623322   -0.60592000   -0.32010900
Ge    9.90262000   17.06829000    9.06475000     -0.516569   -0.08585100   -0.36195600
Ge   11.95275000   15.53506000    0.40854000      0.300990   -0.89338800    0.35985300
Ge    9.76109000    0.25654000   10.56772000     -0.471835   -1.59063300    0.73983400
Ge   15.28808000   21.36208000   18.79419000     -0.141073    0.58862400    0.34772000
Ge   18.38828000    4.96836000   10.16972000     -0.113553    0.11053900   -0.91637300
Ge   18.65790000    8.45614000   17.16899000      0.165240   -0.19967900   -0.02148400
Ge   18.58727000   14.79668000   10.53955000      0.253706   -0.23094400    0.53657600
Ge   17.38675000   11.28079000   17.94737000     -0.099022    0.76238900    0.85925200
Ge   13.33189000   16.04172000    9.00093000      0.258723   -0.72806900   -0.78970200
Ge   16.97142000   14.80987000    0.08111000     -1.288184    0.34585200    0.28571900
Ge   15.92524000    4.14063000    9.52078000      0.796358    0.03531400    0.01716900
Ge   18.80247000    3.43048000   18.52017000      0.088252    0.12362500    0.68126300
Ge    1.07651000    3.94360000    9.41912000     -0.657282   -0.09073700    0.49424600
Ge   21.54493000    4.04637000    3.00662000     -0.083733    0.93101500    0.69379100
Ge    0.28281000    9.88078000    9.08588000     -0.499143    0.84258800   -0.60009100
Ge   21.75955000    9.51846000   18.06968000      0.982269    0.22681100    0.37921100
Ge   21.19596000   15.78232000    8.57072000     -1.228642   -0.29842600    0.31901500
Ge    3.92720000   15.13949000   18.18970000     -0.174019   -0.48116100   -1.93634600
Ge   19.03817000   22.25951000   10.77784000      0.406515    0.54477900   -0.11767000
Ge   21.93655000   20.35362000    2.77953000     -0.771535   -0.42196600   -0.22903200
Ge    4.37679000    7.23328000    7.54049000     -0.721060   -0.14538000   -0.00249000
Ge    1.64754000    6.97932000   16.64907000      0.800354    1.21155800    0.52386100
Ge   20.34016000    9.18358000    4.40393000      0.048618   -0.38781400   -0.01667500
Ge    3.06878000   12.60672000   15.27406000      0.816483    0.69084500   -1.04901700
Ge    4.84978000   19.22138000    4.76033000     -1.268999   -0.47616000    0.88467400
Ge    0.71244000   18.04440000   18.50353000      0.460772    0.89390200    0.01147500
Ge    4.10533000   19.12809000   10.17438000      0.305395    0.26068200   -2.11638000
Ge    1.68127000    1.35828000   18.32981000      0.283817   -0.03863700    1.05005600
Ge    9.61751000    1.64440000    7.47069000      0.427279    0.59130600    0.39354300
Ge    7.53920000    5.83718000   16.91877000     -0.647331   -0.01541600    0.01825500
Ge    7.74110000   10.54145000    3.92233000      0.088516   -0.12686600    0.26982600
Ge    9.98701000    8.34410000   16.38283000     -0.144092   -1.18787700    0.40263700
Ge    7.27307000   16.30805000    8.43092000     -1.413626   -0.15364500   -0.16750600
Ge   10.01993000   15.31370000   15.76524000     -0.426377    0.68721100    0.08565600
Ge   10.42590000   21.14569000    6.18841000     -0.329481   -0.50904200    0.68770300
Ge   10.52867000   22.30337000   14.22937000      0.003900   -0.20891200    0.48767500
Ge   12.30157000    7.53110000    4.59330000      0.426735    0.62410200    0.57815700
Ge   15.20515000    4.45039000   16.24475000     -0.471510    0.89723000    0.47987100
Ge   14.28219000   10.03184000    7.05235000     -0.722390   -0.23880200   -1.04405800
Ge   15.30307000   12.38604000   15.19262000      0.127693   -0.23738100   -0.07113300
Ge   12.54423000   15.31513000    5.44925000      0.831432   -0.42721800    0.29523700
Ge   14.98854000   18.22836000    0.56823000      0.065285   -0.20597000   -0.78487300
Ge   14.73328000    0.27823000    9.88800000     -0.030492   -0.41380500    0.94987800
Ge   17.12376000   21.98081000   13.61457000     -0.330045    0.12735300    0.14301500
Ge   20.86138000    4.46107000    8.69856000      0.315338    0.25863100    0.12729800
Ge   19.67570000    5.73954000   13.82818000      0.349099    0.24418700    0.61566200
Ge   18.87381000   10.57264000    7.80040000     -0.350326    0.31243800   -0.73907800
Ge   20.95828000   15.05742000   16.67234000      0.765388    0.21990100   -0.13407500
Ge   19.33737000   15.71741000    5.32040000     -0.143116    0.46250800    0.08197200
Ge   17.53883000   17.74331000   16.67017000     -0.553916    0.19859400    0.26941800
Ge    0.89536000    1.02921000    7.40336000     -0.639380    0.04059900   -0.02879500
Ge   18.77211000   21.07018000   17.09557000      0.555723    0.23732400    0.21916400
Ge    7.20798000    3.32697000    6.72495000      0.358512   -0.32850400   -0.37171700
Ge    3.82744000    2.59397000   12.93642000     -0.506968    0.29615200   -0.19080500
Ge    0.08285000    9.05328000    5.95457000      0.031037    0.34106100   -0.37462400
Ge    2.20147000    7.83639000   11.30595000      0.516978   -0.43801900   -0.53548100
Ge    0.86644000   15.79978000    3.70969000     -0.093177   -0.23937500    0.35119600
Ge    2.61506000   18.04360000   14.90067000     -0.073914    0.06386400    0.70639300
Ge    3.99711000    0.22064000    8.98860000     -0.996191   -0.20855300    1.40171100
Ge    7.63937000   17.88554000   16.93688000      1.036956   -1.12936800   -0.52202900
Ge    7.36221000    3.50843000    2.75356000      0.595275    0.12240400    0.03915700
Ge    9.90884000    3.01219000   16.99438000      0.043171   -0.59794000   -0.14951300
Ge    8.64471000    8.16437000    4.55960000     -0.707909   -0.16657300   -1.48282700
Ge    7.20194000    9.62209000   12.73079000     -0.445276   -0.16520200    0.97452700
Ge    6.43541000   14.46447000    5.10324000      1.363826    0.26878800   -0.06103900
Ge   11.11110000   11.67174000   15.49974000      1.618607    1.52717900   -1.13366200
Ge    8.05467000   20.28319000    3.78459000      0.082471    0.96287500   -0.57007800
Ge    9.43098000   16.62587000   12.78858000     -0.616989    0.19237700   -0.47485000
Ge   11.82029000    1.83040000    5.35630000      0.200868   -0.20037800   -0.37077000
Ge   12.52291000    4.13976000   14.06096000      0.579432    0.41847900   -0.57704200
Ge   17.15964000    4.64690000    5.08047000      1.309371    0.85224700    0.23048600
Ge   13.68707000    8.30414000   13.89477000      0.705162    1.35774200    0.27676100
Ge   15.06538000   12.97578000    3.69812000     -0.224832    0.57664900   -0.49104900
Ge   13.45728000   16.43359000   12.78687000     -0.189900   -0.91103900   -0.67189500
Ge   11.33990000   18.41488000    3.87528000     -0.376011   -1.17964600    0.15401500
Ge   11.03378000   19.65627000   16.75330000      0.071637   -0.30834200   -0.46509100
Ge   22.25049000    4.52599000    5.80153000     -0.485213    0.55897100   -0.27975200
Ge   22.34762000    2.86785000   13.90987000      1.024639   -0.57820200   -0.76519900
Ge   19.05043000    7.75077000    6.76291000     -0.603728    0.12736700    0.25840700
Ge   17.50687000   10.30732000   12.70830000      1.049184    0.96527500    0.07888200
Ge   20.44973000   16.61333000    1.32807000     -0.287750    0.01667200    0.01448000
Ge   18.73883000   15.24471000   13.94451000      0.198085    0.48059000    0.06344500
Ge   19.09682000   20.42873000    5.49511000     -0.251419   -0.57150800   -1.01884600
Ge   21.84635000   21.14633000   12.45745000      0.048475    0.79440000    1.50016600
Ge    4.37418000    2.53645000    3.09395000     -0.575050    0.12564400   -0.08561900
Ge    5.95198000    0.90015000   13.09305000      0.508552   -0.19094100    0.25409000
Ge    4.45031000    7.79693000    4.17144000     -0.466082    0.13533900   -0.13963400
Ge    6.72489000    5.26950000   14.50772000      0.025188   -0.65416900    0.33516700
Ge    4.25224000   12.24988000    1.69772000      0.202915    0.36674400   -0.46751500
Ge    4.36192000   10.73484000   12.69379000     -0.067453    0.00995700   -0.63285100
Ge    4.50967000   21.83214000    6.64012000     -0.291868   -0.11036900   -0.51670500
Ge    6.49957000   19.43504000   12.51122000      1.094229    0.55756200   -0.14099800
Ge   11.03646000    3.69291000    2.99937000     -0.129467   -0.26791100    0.07880000
Ge    8.39595000    4.43287000   12.62559000      0.317064   -0.47716400   -0.34395400
Ge   11.53116000    7.97389000    1.24420000      0.106520    0.43669100    0.52890200
Ge   10.97303000    7.17924000   12.76575000     -1.193021    0.45841000   -2.23724200
Ge    8.17118000   13.99367000    1.40387000     -0.156336    0.06750100    0.59761400
Ge    8.40742000   13.66886000   10.47577000      0.761913   -0.62434900   -0.40269300
Ge   11.81450000   21.27693000    1.30606000      0.539384    0.25253700   -0.01462400
Ge   11.17167000   19.77529000   12.85918000     -0.243058   -0.49513600   -0.71200200
Ge   22.18667000    0.22475000   17.15932000     -0.653700    0.55919900   -1.03314600
Ge   12.57810000    2.21862000   10.74571000      0.039700    0.02805500   -1.05204100
Ge   16.63048000    7.36734000    1.88001000     -0.223550    0.09094200   -0.00314200
Ge   15.10650000    7.89366000   10.36769000      0.403485   -0.30658800    0.48329400
Ge   18.07608000   11.99338000    1.87807000     -0.015641    0.05684500    0.37199600
Ge   16.68589000   16.06247000    8.94329000     -0.221791    0.42040200   -0.00052100
Ge   16.98965000   20.45317000    2.88230000     -0.893470    1.28644600   -2.57968500
Ge   13.85948000   19.53016000   10.15174000      0.892608    0.11743500    0.01783900
Ge   21.52234000    1.75971000    2.23982000      0.749868   -0.21248500   -0.29404800
Ge   21.09006000    1.49598000   10.24889000      0.491580   -0.69518400   -0.58132800
Ge    1.18355000    8.64424000    1.39480000     -0.754857    1.21557500    0.42648800
Ge   21.60323000    9.08638000   13.08883000      0.810294   -0.28969700   -0.74417100
Ge   20.70419000   13.13988000    1.35333000     -0.605037   -0.12223100    0.52195600
Ge    0.80782000   14.31784000    9.97726000     -0.048787    1.10859300    0.45446300
Ge    1.83894000   18.99168000    4.57471000     -0.585387   -0.14169600    0.10791600
Ge   18.97551000   19.01850000   11.30452000      0.052372    0.99241100   -0.73368300
Se   21.13472000    0.29264000    0.47660000     -0.712822   -0.70080800   -0.20150000
Se    1.37589000    1.48233000    9.94430000     -0.171313    0.39260900   -0.59474900
Se    2.90035000   10.06060000    2.81617000     -0.305824   -0.82578000    0.22908000
Se   22.27597000    6.91968000   11.76036000     -0.103512    0.13663600    0.51223500
Se   22.16675000   12.72056000   18.30951000     -0.556460   -0.66790300   -0.31527100
Se    1.94349000   12.47897000    9.05422000      0.170793    0.01254900    0.08872700
Se    2.56952000   16.67943000    5.70798000      0.439946    0.27810200   -0.53923500
Se    1.42123000   16.88861000   11.19387000      0.098015   -1.00790400   -0.58445200
Se    5.43959000    2.84506000    0.93311000      0.331256   -0.09028100   -0.09799900
Se    6.27280000    3.89007000   11.29538000      0.093762   -0.90054300    0.53932000
Se    6.80969000    6.07824000    2.09949000     -0.307810   -0.24926200   -0.42479400
Se    7.92788000    6.87087000   12.42827000      0.528234    0.80111800    0.28384800
Se    7.83549000   10.43180000    1.28685000      0.546313   -0.09104500   -0.89754000
Se    6.36141000   12.91116000   13.40043000     -0.236023   -0.31226900    0.92329700
Se    6.03829000   20.12860000    2.24332000     -0.169938    0.48211100   -0.42809400
Se    8.75114000   18.95419000   10.65197000     -0.348750   -0.39139100    0.03742800
Se   12.59608000    1.38068000    0.65836000     -0.574070   -0.66599000   -1.28922900
Se   11.88226000    1.83868000   13.06670000      1.124661   -0.40796800    0.90459700
Se   12.42244000    7.65741000   17.94904000      0.184112   -0.40130600   -0.23204800
Se    9.27357000    9.39013000   10.00766000      1.487246    0.85105400    0.37795700
Se   12.87238000   13.31316000    1.91274000      0.429061    0.36392700    0.19142100
Se   12.11125000   10.86554000    8.20162000      0.118558    0.23501300    0.63206200
Se   13.84274000   16.88350000    2.27136000     -0.069585   -0.89948900    0.21660700
Se   12.03633000   17.67699000   10.25768000      0.358726    0.16616100    0.68724500
Se   18.84638000    3.30944000    3.01823000     -0.455729    1.15814900   -1.50586500
Se   16.26948000    1.81036000   12.56473000     -0.001271    0.04103400   -0.39389600
Se   16.30323000    8.34965000   17.96317000     -1.023442   -0.81077900    0.33981700
Se   17.56415000    5.82266000   12.28037000     -0.064999   -0.20247100    0.89439600
Se   18.52058000    9.51660000    0.67303000     -0.063301    0.27994000   -0.04406600
Se   17.68590000   14.12629000    6.76200000      0.433471    1.15303700    1.13552300
Se   20.55737000   19.23355000    0.56859000      0.397876    0.31304800    0.29695600
Se   15.86849000   18.56831000    8.90917000     -0.308146    0.03656300   -0.07066900
Se    1.43930000    2.75110000    1.93961000      0.122900   -0.65317800   -0.49770300
Se    5.46315000    7.40398000   10.07950000     -0.565670    0.27552600    0.50373700
Se    5.62978000   10.07206000    2.21710000     -0.563714    0.43205100    0.10033500
Se    4.61630000   11.68135000    9.95753000      0.472107    0.40692400    0.45709800
Se    2.83205000   15.24858000    1.37046000      0.203475    1.25804300    0.95926000
Se    2.10109000   13.50436000   13.01456000     -0.296096   -1.16450700    0.09960200
Se    2.98773000   21.28392000   18.46949000      1.785385    0.99728700    1.33365400
Se    5.61308000   21.19004000   10.09804000      1.238674   -1.57418500   -0.05560600
Se   12.23986000    5.52543000    1.70549000      0.712400   -0.21518900    0.39656800
Se    6.46102000    5.36983000    7.85099000     -0.239649    0.28788600    0.20254900
Se   11.69226000   10.63966000    1.03930000     -0.474792   -0.20480400    0.41959900
Se    6.98887000   10.77987000   10.51238000     -0.706083    0.92051700    0.02012600
Se    9.88925000   15.87260000    1.98188000      0.147279   -0.45280100    0.06069400
Se   13.01096000   12.83190000   12.75244000      0.379062   -0.08119000    0.09948600
Se   10.01781000   21.26535000   18.48979000     -0.145558    0.72209200   -0.86478100
Se    8.45683000   22.21100000   12.74042000     -0.260922    0.29977700   -1.41065800
Se   15.68046000    4.54353000   18.91966000     -0.670149    0.16410800    0.36674500
Se   17.01259000    6.76288000    8.84394000      0.614828    0.01642900   -0.16172600
Se   14.59082000   10.73499000    0.12640000      0.388659   -0.24067100   -0.73013600
Se   15.09388000   11.47747000   12.24288000     -0.402386    0.34931900   -0.04523800
Se   17.73318000   14.73239000    2.92980000     -0.003714    0.00368300   -0.04601700
Se   15.76586000   12.08854000    9.91242000     -0.312200   -0.27381500    0.47991700
Se   17.14025000   22.36199000    0.98824000      0.552562   -0.80795400    0.27906000
Se   14.82932000   21.21291000    7.60503000      0.104677   -0.86579400    0.48144200
Se   21.83690000    4.97403000    0.83332000     -0.351009    0.35849800   -0.42603500
Se   20.96113000    3.39808000   11.74987000     -0.319659    0.65487200    0.15720800
Se   20.37079000    6.90253000    1.46247000      0.821307   -0.18289700    0.40794300
Se   21.14970000   10.16491000   10.95050000     -1.059146    0.95453300   -0.03334800
Se   19.30022000   14.73995000   18.63011000      0.997158    0.01120100    0.71763200
Se   20.70212000   16.71847000   12.60485000      0.409669   -1.28345600   -0.67241700
Se   20.81844000    0.40261000    4.07205000     -0.039907   -0.23514100    0.49836500
Se   17.11511000   20.76346000   10.98993000     -0.145481   -0.39810800    0.49693200
Se    2.77232000    4.75540000    7.94529000      0.670486   -0.04427800    0.31785600
Se   21.87387000    3.42103000   16.85954000      1.692419    1.06049700    2.13262100
Se    2.64674000    9.65504000    8.58624000      0.626679   -0.47937700   -0.02915900
Se    1.62675000    9.52192000   16.94089000     -1.105990    0.06329200    0.32442200
Se    4.79778000   17.40090000    8.13481000      0.445555    0.45538600    0.72736900
Se    0.15216000   18.22568000   15.98318000      0.128660   -0.82786200   -0.87187700
Se    1.19492000   19.62695000   13.03810000      1.129402   -0.46192600   -0.06451100
Se    1.18573000   20.90434000   17.27559000     -0.996829   -1.46550400   -1.00096600
Se    5.44431000    3.87497000    4.92279000     -0.133797   -0.40461700    0.02437000
Se    5.29637000    5.85176000   18.07504000      0.160836   -0.17533300    0.15524600
Se    5.57944000    8.97980000    6.17628000      0.466877    0.03591400   -0.18726600
Se    4.30631000    7.28619000   15.89706000     -0.293772   -0.07304600    0.35852300
Se    6.76871000   15.09053000   11.44289000     -0.888226    0.76994700   -0.58071900
Se    6.12373000   16.41331000   18.50713000      0.775825    0.10765100   -0.36435100
Se    9.99556000   18.18444000    6.42553000      0.484887    0.08550300    0.35888500
Se    6.48942000   19.64011000   18.11808000     -0.542589    1.42414300    0.94950900
Se    9.96457000    2.53853000   10.18435000      0.134965    0.58626100   -0.90100700
Se   12.71954000    3.34169000   16.41518000      0.278614   -0.41988400    0.27204700
Se   13.40632000    7.59047000    7.18730000     -0.248728   -0.21229200   -0.61706200
Se   13.90860000   10.10776000   16.10151000     -0.568913    1.11829200   -0.31731100
Se   11.58340000   14.90932000    7.69614000     -0.421476   -0.14602900    0.67773200
Se   14.38573000   16.36635000   17.80267000     -0.710272   -1.92700900    1.41016400
Se   12.05181000    0.18310000    7.26620000     -0.565175    0.91958800    0.15634300
Se   14.85585000   19.53080000   17.11385000      0.168328    1.12206800    0.16163600
Se   13.74363000    4.56356000   10.31043000      0.059995    0.17742400    0.06305900
Se   20.43879000    2.56603000   15.44954000     -2.078948   -1.41075200   -1.28739500
Se   18.50523000   10.04579000   10.14112000      0.773077   -0.60824900    1.52918900
Se   17.53422000   10.34570000   15.75251000      0.168292    0.29461700   -0.95397600
Se   14.60223000   16.44671000    6.86521000     -0.384255   -0.10809300   -0.14449200
Se   19.75499000   13.25690000   15.18519000     -0.190528    0.13149800   -0.58105200
Se   18.81107000   21.05083000    7.81935000      0.198774   -0.06286600    1.14380500
Se   18.71970000   19.06789000    2.75274000      1.663337   -1.91902700    0.17446400
Se    5.59696000    1.42817000    7.65616000      0.281646    0.22456000   -0.35115400
Se    3.68577000    2.49810000   17.75232000      0.842977    0.57433600   -1.01097400
Se    7.66027000    8.88319000    8.31425000     -0.171335    0.18508800   -1.60221600
Se    4.45848000    9.34380000   18.81303000      0.326398    0.80263800   -0.77344900
Se    6.40956000   17.13758000    5.37321000      0.570954    0.13864300    0.73978100
Se    5.47676000   12.87288000   18.25799000     -0.317131   -0.83955800    0.31151100
Se    2.01566000   20.38250000   10.22131000     -0.254583   -0.58809900   -0.28315600
Se    1.48605000   19.35622000    1.95318000      0.647814   -0.25601700    0.28298700
Se    8.56533000   21.90751000    8.58010000      0.745832    0.66917000   -0.10349200
Se    9.44141000    3.51901000    1.12240000     -0.449679   -0.27124600   -0.24451800
Se    9.94408000    5.68468000    8.51345000      0.105918   -0.84936200    0.17394100
Se    9.30725000    6.50462000   18.44582000     -0.076513    0.18966700   -0.31672800
Se    9.38501000   12.34446000    5.68302000      0.227533   -1.67395400    0.93264600
Se    7.85472000   14.75180000   17.98429000     -0.398567    0.19714800   -0.38331700
Se   12.02411000   21.93897000   11.06812000     -0.755016   -0.42220400   -0.42282800
Se   11.20393000   13.73412000   17.41198000      0.378044    0.18970600    0.53265500
Se   15.28326000    0.93629000    7.67684000      0.697647    0.93280100   -1.10170900
Se   16.79381000    2.74453000    1.04893000     -0.263981    0.56467000   -0.72012300
Se   15.56863000    4.91513000    7.15719000      0.233763    0.42980800    0.12272300
Se   15.36559000    7.13530000   16.12063000     -0.166668   -0.79892800   -0.20271200
Se   15.95137000    9.66001000    8.73764000      0.559673    0.47788100    0.82820600
Se   14.27120000   13.06105000   18.92642000     -0.095269    0.28315900    0.12200200
Se   13.50674000   19.09836000    5.44677000      0.496122   -0.18082000    0.05032300
Se   17.39833000   17.77799000    0.32038000      0.458600   -0.26010000   -0.51715200
Se   21.09092000    2.05408000    7.64870000     -0.477294   -0.28327900    0.57053300
Se    0.79588000    0.25497000   13.81062000     -0.506120    1.06474700   -0.32354900
Se   20.82424000    7.31925000    9.48570000     -0.161249   -0.73717200   -0.56276700
Se   21.18467000    7.34411000   17.16271000      0.365899   -0.22177500   -0.00670500
Se   21.22094000   10.99703000    7.21186000      0.991451   -0.17774700    0.36353800
Se   20.14667000   11.66109000   17.16851000      0.626533   -0.89740300    0.74170800
Se   19.15769000   17.27380000    7.75148000      0.006487   -0.26628400    0.22391900
Se   19.68569000   17.11597000   15.91528000      0.479047    0.07686900    0.08489900
Se    3.56397000    0.32863000   11.67715000      0.483400    0.59054500    0.28780700
Se    2.66812000    2.25270000   15.28005000     -0.280337   -0.38581500    0.03864900
Se    0.40872000    7.57559000    8.12693000     -0.816198   -0.63869000    0.29758900
Se    1.26876000    9.80392000   14.02485000     -1.399945   -0.21673600    2.65688700
Se    4.09210000   14.36545000    4.96198000     -1.906657    0.10963500   -0.38269400
Se    1.84675000   13.63336000   16.91566000      0.322485    0.78783400    0.74613800
Se    0.68864000   16.89427000    8.58071000      0.836570    0.53819400    0.39716600
Se    2.97479000   20.61139000   14.48891000     -0.486440   -0.64168800   -0.20313300
Se    6.97915000    1.05007000    3.57152000     -2.115317    1.13900300    1.87441200
Se    7.77553000    0.20706000    1.77599000      0.588322   -1.32487800   -2.88079000
Se    9.85850000    8.52744000    6.59627000     -0.245573    0.54051300   -0.32188800
Se    4.23061000    5.30306000   14.56054000      0.290837   -0.16125300   -0.03022900
Se    5.48134000   11.88600000    5.06534000      0.431914    0.76667300   -1.27537100
Se    9.33830000   13.91562000   13.66389000      0.797844   -0.40172000   -0.09336600
Se    8.43496000   17.90850000    3.86178000     -0.674200   -1.32364800    0.68700500
Se    7.60227000   16.54467000   14.77393000     -0.122417    0.17104800    0.05694800
Se   13.91441000    0.75379000    4.17960000     -0.426376    0.33862900   -0.75455300
Se   13.81832000   22.10800000   16.33659000      0.119707    0.05366800    0.27113400
Se   11.80651000   10.12800000    5.31311000     -0.036371   -0.56347000   -0.47558600
Se   12.09400000    6.63984000   14.70412000      0.136774   -1.36408300    2.36367200
Se   13.67902000   12.68727000    5.58235000     -0.747764    0.56031500    0.28294300
Se   14.27208000   14.69289000   14.55678000     -0.564124   -0.45967100   -0.21797000
Se   12.42821000   19.20637000    7.50804000     -0.815144   -0.19634500   -0.07536500
Se   12.55173000   18.73893000    0.33951000     -1.104595    0.49321400    0.30851600
Se   19.79046000    2.62100000    4.94249000      1.148274   -1.59329400    2.02000800
Se   17.45133000    0.54889000   16.38542000      0.026741    0.12251400   -0.19394100
Se   19.64226000    5.25407000    6.14792000     -0.875516    0.04790400    0.22816300
Se   18.66484000    5.66358000   16.54267000      1.025774    0.73739000   -1.60367400
Se   19.21664000   11.50414000    4.25760000      0.046826    0.51418500   -0.44374500
Se   17.18362000   13.98074000   12.60110000      0.277610   -0.06817600   -0.63131600
Se   17.65160000   18.02454000    5.16575000      0.636034    0.59812700   -0.18765100
Se   17.65759000   19.94647000   15.24516000     -0.319513   -1.38594900    0.08475700
Se    2.56947000    7.16133000    5.63600000     -0.066505   -0.26506700    0.16842900
Se    1.62969000    6.86659000   13.58758000     -0.229967   -0.51436500    0.22983400
Se    1.46906000   11.62349000    5.53663000      0.619910   -0.77683700   -0.19878000
Se    3.84496000   10.32209000   15.16391000      0.622442   -0.07142100    0.15550700
Se    6.10935000   14.02519000    7.70285000      1.000585    0.51692900    0.34565600
Se    3.53408000   17.83924000   17.55983000     -0.892586   -0.48971000    0.02234100
Se    1.50158000   19.79524000    7.71476000      0.537458   -0.91229200    0.67568000
Se    6.81912000   21.75864000   15.47501000     -0.435648    0.13404800   -0.88516600
Se    9.23601000    0.50819000    4.70193000      0.960130    0.07903200    1.42654700
Se    7.46869000    1.70680000   17.43327000     -0.033676    0.60495600    0.13522200
Se   12.77391000   12.36733000    9.88223000     -0.457149    0.03988700   -0.15749200
Se    9.84738000   10.69182000   17.17137000     -1.563383   -0.50988700    2.05953100
Se    8.87000000   13.43799000    7.65451000     -0.477816    0.43719600    1.23821500
Se   11.42284000   17.16799000   14.19984000      0.419445    0.40200500    0.30714100
Se   12.05261000   20.70425000    4.23156000      0.594172    0.75837500    0.02538300
Se   10.71668000   17.30435000   18.06371000     -1.239096    1.37415200   -1.04402700
Se   11.29526000    3.97976000    6.83885000     -0.338234   -0.34288200   -0.19446600
Se   17.54885000    3.64088000   16.29047000      0.286079   -1.09049400   -0.43805600
Se   16.81621000    9.20163000    5.59374000      0.302480   -0.82209200   -0.24871600
Se   16.23976000    8.35585000   12.94248000     -0.097231   -1.14013500   -0.69939400
Se   17.20414000   12.09906000    5.88344000     -0.695575   -1.61535300   -0.81688900
Se   15.04959000   17.40564000   15.95998000      0.489419   -0.18688600   -1.66609300
Se   16.56737000    2.38611000    4.85218000      1.125250   -1.22097900   -0.68812000
Se   18.20868000    3.41005000   13.30919000      0.145088    0.53077300   -0.24323400
Se    1.21543000    2.77007000    5.66823000      1.327674   -0.88458400   -0.31274200
Se    0.04661000    5.33987000   15.50011000     -0.473677   -0.73027900   -0.71541300
Se   18.97295000   13.01163000    8.76732000     -0.196905    0.02191100   -0.70487100
Se   21.58734000   12.67288000   13.75347000      0.026912    0.11222300   -0.13994500
Se   21.55131000   14.85196000    6.42109000      0.079002   -0.58377500   -0.34246300
Se   20.25289000   18.81174000   13.43540000     -0.224267    1.10891700    0.21157400
Se   20.39824000   19.44582000    8.73516000     -0.646298   -0.10570500   -0.10452300
Se   21.15355000   20.84837000   15.92368000     -0.820066    0.14090500    0.23909400
Se    3.36407000    0.36904000    4.19379000      0.787366    0.41728900    0.85057600
Se    7.01996000    2.57702000   15.15926000      0.031550   -0.13171900   -0.05751000
Se    2.16417000    6.80697000    0.23041000      0.610678   -1.39659600    0.28073700
Se    4.83258000    8.11168000   12.60816000     -0.288102    0.28399300   -0.56189700
Se    1.36714000   13.64990000    2.10612000     -0.076773   -1.03564000    0.21005300
Se    5.13387000   14.08604000   15.01769000     -0.142280   -0.17764100    0.00713900
Se    4.85465000   18.08492000    2.66805000      0.159595   -0.55311700   -1.27774200
Se    4.67614000   17.98831000   12.03747000      0.189172   -1.13254700    1.27826700
Se   10.33208000    0.85113000    2.67264000      0.986945   -0.38348700   -0.53690500
Se   11.19978000    0.73473000   16.86815000     -0.892470   -0.07677600    0.37762900
Se    9.07456000    6.83120000    2.26589000      1.560880    1.12029700    0.48154200
Se    7.31363000    8.08984000   15.85970000      0.278986    0.50705300   -0.06787700
Se   10.35340000   10.73767000    3.42180000      0.675980    0.07084400   -0.46340100
Se    9.56621000   10.34420000   12.48687000      0.829602    0.65201100   -0.06380000
Se    9.81090000   19.82265000    1.99152000     -0.135643   -0.63279600   -0.48775800
Se   15.01775000   18.37442000   12.55560000      0.008815    0.21472600    0.01559600
Se   14.70055000    3.03983000    5.95174000     -2.171749    0.30416900    0.26534000
Se   14.86704000    1.47320000   15.72557000     -0.057109    0.15229500   -0.29086000
Se   15.68425000    6.03061000    3.89583000     -0.612508    0.16002100   -0.34200800
Se   12.73847000    8.26286000   10.88555000     -0.716262   -0.09351500    0.66674200
Se   15.57968000   10.77085000    2.49083000      0.364074    0.02628400    0.28188500
Se   17.14583000   14.36095000   16.53395000     -0.262858   -0.43015000   -0.78364500
Se   15.57474000   15.79148000    3.59424000      0.170137   -0.16445300    0.55038600
Se   14.50464000   22.09632000   12.75201000      0.233813    0.16419500    0.01402900
Se    0.81257000   21.22081000    6.08295000     -0.160460    1.07058000   -0.67902700
Se   19.60986000   22.31420000   13.27089000      0.550512    0.23729000   -0.41018500
Se    0.04613000    7.46551000    3.22434000      0.136422    0.01095400    0.47677800
Se   19.87668000    8.48625000   14.39664000     -1.434532   -0.51796900    0.11757500
Se    1.73715000   13.93440000    5.83936000     -0.677127    0.41154700    0.10869900
Se    0.00511000   15.83497000   14.71712000     -0.030219    0.38737600    0.57974700
Se   21.68280000   18.52254000    4.58455000      0.521654    0.21192000   -0.29542400
Se   21.98799000   21.09450000   10.07070000     -0.762655    0.50794400   -0.52346500
Se    3.54032000    4.85614000    3.24862000     -0.426446    0.41683400   -0.07101900
Se    1.68192000    3.99024000   11.89560000      0.910557    0.10689900    0.02355300
Se   21.11460000   10.69625000    2.64427000      0.501264    0.23868300   -0.33600200
Se    1.61469000   10.24317000   11.87983000      1.384276    0.91817000   -2.50790800
Se   22.44688000   15.80778000    0.02152000      0.049772    0.17001700   -0.28480900
Se    3.02644000   15.60569000   12.79514000      0.710781    0.42681400   -0.20168700
Se    2.03685000   22.44968000    2.47914000     -0.947904   -0.35758200   -1.01234200
Se    5.72066000   19.61365000   15.81457000     -0.493556    0.37312900   -0.38190500
Se    9.33586000    4.37827000    4.78313000     -0.060468    0.03918900    0.11121600
Se    9.87507000    2.48853000   14.20558000     -1.461742    0.57667200    0.38387400
Se    6.89875000    6.29061000    4.46936000     -0.423938    0.70862900    1.34051000
Se    8.26390000   12.29032000   15.41966000     -0.056701   -0.17774100   -0.57333100
Se    5.77095000   14.42934000    2.14595000      0.285832   -0.20048600    0.62945700
Se   10.59049000   14.83238000   11.27675000     -0.170919   -0.06112500   -0.16217900
Se    6.58483000   20.66281000    5.81164000      0.338023    0.95489000    1.23576800
Se    9.23856000   19.78922000   14.52801000      0.511782    0.12473900    1.16515900
Se   13.79011000    2.37243000    2.25208000      0.601030    0.29573800    1.75080700
Se   11.46365000    4.94513000   11.83757000     -0.785935   -0.17411200    0.10739400
Se   13.97724000    8.51097000    2.86331000     -0.630073   -0.60825200   -0.19037100
Se   11.06862000    9.51167000   14.24042000     -0.166621   -0.07920900   -0.82665900
Se    8.98404000   14.05903000    4.32724000     -0.211298    1.48580600   -1.22824700
Se   14.71791000   14.70792000   10.55588000      0.106401    1.05952600   -0.28669000
Se   14.74202000   20.12455000    2.21900000     -0.284479   -0.07702900   -0.44198200
Se   13.54063000   20.20518000   13.79892000      0.236993   -0.33745200    0.70889800
Se   18.38358000    6.21351000    0.31432000     -0.329085   -0.93870200    0.44740700
Se   14.97792000    4.39503000   13.75335000     -0.447494    0.21680600   -0.06895600
Se   18.37237000    7.64187000    3.88641000      0.143447    0.75463300    0.22483300
Se   21.22195000   13.99146000   11.23738000     -0.356312    0.19305600    0.08242300
Se   20.93042000   14.82728000    3.45618000      0.125355   -0.16174900   -0.71929400
Se   17.57888000   17.14237000   11.34968000     -0.635819   -0.30639300    0.62929400
Se   16.77858000   21.56543000    4.72198000      0.366278    1.30100300    2.80383700
Se   17.19047000    1.63690000   10.25588000     -0.252237   -0.38427600    0.46181600
