384
22.54784000 22.54784000 18.93360000
Ge    4.67670000    4.99136000    9.60713000      0.945851    0.17085300    0.88773800
Ge    4.54322000    7.31611000    1.17812000     -0.439351   -0.02263400    0.44345400
Ge    4.10139000   10.96182000    6.81820000     -1.476092   -0.01576500    0.97038300
Ge    6.50698000   10.09730000   17.61464000      0.330514    0.55178400   -0.17959900
Ge    4.55065000   14.31833000   10.39567000      0.271667    0.31765700    0.01217200
Ge    8.54349000   17.72531000    1.09519000     -0.580706    0.47505800   -0.55442800
Ge    7.30398000   19.72842000    8.31844000     -0.144672   -0.63565000    0.82383900
Ge    5.37422000    0.23382000   17.21846000     -0.237919    0.07786700    0.30549300
Ge    8.34268000    7.28384000   10.06847000     -0.385323   -0.85316500   -0.35171100
Ge   11.55673000    5.06411000   18.36391000     -0.117614    1.08658900    0.25381200
Ge   11.35415000    7.92675000    8.52826000     -0.347390   -0.17018400    0.99027700
Ge    9.86230000   12.50869000    0.37019000      0.139077   -0.58721000   -0.35980500
Ge   10.04132000   17.18272000    9.08630000     -0.641160   -0.36964000    0.02198300
Ge   12.14049000   15.41211000    0.27580000     -0.547336    0.01734400    0.09993000
Ge    9.92092000    0.27142000   10.58414000     -1.388261   -0.63652300    0.91286000
Ge   15.35840000   21.46625000    0.01549000     -1.041105    0.04859400   -0.13226700
Ge   18.47202000    4.98691000    9.94935000     -0.158149   -0.05228900    0.64953300
Ge   18.79066000    8.62545000   17.22732000     -0.440753   -0.19360500   -0.26059400
Ge   18.56359000   14.80741000   10.65269000      0.428535   -0.04356000    0.02203100
Ge   17.43640000   11.35515000   17.97826000     -0.458948    0.84811000    0.72799300
Ge   13.29642000   15.96195000    8.88147000     -0.173369    0.10284300    0.56863800
Ge   16.79155000   15.05433000    0.05983000      0.243521   -0.17895800    0.09168300
Ge   15.91567000    4.10107000    9.70458000      1.145593    0.08461800   -0.95701100
Ge   18.87640000    3.40134000   18.71838000      0.334296    0.22312100   -0.20013300
Ge    1.11192000    3.84689000    9.36644000     -0.605709    0.67065000    0.92576200
Ge   21.40156000    4.07351000    3.07533000     -0.463453   -0.09382900    0.94112300
Ge    0.23998000    9.97292000    9.12041000     -0.199462    0.39802900   -0.85892200
Ge   21.81285000    9.69675000   17.98026000      0.604987   -0.59725800    0.79163600
Ge   21.05129000   15.76757000    8.49809000      0.836884   -0.15129800    0.31619900
Ge    3.93488000   15.09191000   17.87705000     -0.191046   -0.15672600    0.41576800
Ge   19.10036000   22.39639000   10.87396000      0.046100   -0.39767500   -0.37902900
Ge   22.01064000   20.43288000    2.56235000     -0.650143   -0.62924800    0.63873300
Ge    4.31205000    7.17848000    7.58033000      0.201427    0.74586300   -0.53141500
Ge    1.63653000    7.11331000   16.72998000      0.373986    0.00428700    0.64775700
Ge   20.32564000    9.26995000    4.19142000      0.801494   -0.85059800    0.69267600
Ge    2.92054000   12.67399000   15.11425000      1.630459    0.34708700    0.23082500
Ge    4.81591000   19.12573000    4.72963000     -1.473131   -0.79985700    0.34459500
Ge    0.72675000   18.14751000   18.53894000      0.582872    0.66613500    0.19771000
Ge    4.09286000   18.95559000   10.01879000      0.208793    0.40067700    0.43096800
Ge    1.75946000    1.22075000   18.50071000     -0.114583    0.30003600    0.45175600
Ge    9.79679000    1.49929000    7.55300000     -1.326089    1.64783200    0.37844500
Ge    7.62438000    5.84886000   16.89352000     -0.943008   -0.25773800    0.62845200
Ge    7.81063000   10.40135000    3.92143000     -0.390572    0.76489100   -0.05557100
Ge    9.81991000    8.23926000   16.47349000      0.421771   -1.20959000   -0.28887800
Ge    7.30705000   16.25818000    8.35306000     -0.989361   -0.02858800   -0.05246400
Ge    9.87374000   15.22378000   15.80210000     -0.713670    1.19710300   -0.21027400
Ge   10.29867000   21.07716000    6.32069000      0.256247   -0.39576300    0.27172500
Ge   10.49531000   22.41427000   14.33386000      0.096952   -0.29127700   -0.30577800
Ge   12.14190000    7.48365000    4.55366000      0.436597    0.55810100    0.17656700
Ge   15.27574000    4.47658000   16.39152000     -0.784635    0.22230500   -0.92869300
Ge   14.28999000    9.84718000    7.01499000      0.485089    0.11569800   -0.84588200
Ge   15.29634000   12.40734000   15.08192000      0.271424   -0.62797900    0.06657800
Ge   12.46405000   15.43438000    5.37860000      0.677237   -0.62565400    1.15490100
Ge   14.88466000   18.16201000    0.55044000      0.125013    0.54880600   -0.55261900
Ge   14.67145000    0.19790000    9.88708000      0.060744   -0.37031400    0.80583000
Ge   17.05737000   21.87601000   13.38953000     -0.036565   -0.55085100    0.85000000
Ge   20.94965000    4.65428000    8.76178000      0.274665    0.17140800    0.10314300
Ge   19.71580000    5.76046000   13.98052000      0.282158    0.31735700    0.55256500
Ge   18.92055000   10.45506000    7.78276000     -0.082942    0.75900200   -0.24520600
Ge   21.13681000   15.10819000   16.56718000      0.014794   -0.82435700    0.39819500
Ge   19.12981000   15.85854000    5.38775000      0.113787    0.51422000   -0.49997000
Ge   17.48632000   17.53507000   16.72634000      0.552072    0.33672700   -0.21305300
Ge    0.73646000    1.05614000    7.16952000     -0.243390   -0.01601400    0.59797800
Ge   18.76505000   20.98495000   17.20896000      0.587796    0.86772200    0.37269800
Ge    7.41280000    3.29717000    6.58694000     -0.092729   -0.13112800   -0.16292100
Ge    3.92035000    2.48963000   12.92823000     -0.804210    1.12914300   -0.06228200
Ge    0.00895000    8.95226000    5.91222000     -0.031630    0.75706500   -0.55191300
Ge    2.08759000    7.83012000   11.34365000      0.774189   -0.76633500   -0.52341100
Ge    0.83197000   15.77496000    3.77116000      0.017800   -0.14227500    0.34059300
Ge    2.62653000   17.85181000   15.01051000      0.021416    0.62045800    0.52970700
Ge    4.06672000    0.20767000    9.14215000     -0.943580   -0.98066000    1.24616100
Ge    7.69428000   17.89123000   16.82548000      1.356417   -1.05454600   -0.02488700
Ge    7.31333000    3.51387000    2.69693000      0.395129    0.20419800    0.19830700
Ge    9.78019000    3.10757000   17.19680000      0.320436   -0.40522600   -0.12940800
Ge    8.52923000    8.09927000    4.40608000      0.344326   -0.43306600   -0.06589400
Ge    7.25608000    9.51383000   12.84283000     -1.150994   -0.11193100    0.56800400
Ge    6.48730000   14.57788000    5.19750000     -0.275414    0.26450700   -0.71453100
Ge   11.05791000   11.70809000   15.44421000      0.462215    0.10766900   -0.09736400
Ge    8.04224000   20.39948000    3.78426000     -0.228401   -0.25770900   -0.26496700
Ge    9.32275000   16.75416000   12.83776000      0.074390    0.02899200   -0.77496400
Ge   11.89838000    1.80518000    5.36633000      0.107515    0.12728900   -0.21134100
Ge   12.52834000    4.26591000   14.04809000      0.382808   -1.01910100   -0.04505600
Ge   17.31431000    4.73748000    5.01256000      1.790101   -2.45878100    1.16795200
Ge   13.62950000    8.38754000   14.01270000      0.760669    0.91100400    0.21222300
Ge   15.00303000   13.07903000    3.68353000      0.058900    0.15483200   -0.60471100
Ge   13.36728000   16.49840000   12.78358000      0.375997   -1.33585900   -1.01124700
Ge   11.18043000   18.45818000    3.93298000      0.015534   -0.21175500    0.12767500
Ge   11.25422000   19.52716000   16.83791000      0.026733    0.57050800   -0.68759500
Ge   22.22554000    4.67697000    5.87990000     -0.216068    0.22569300   -0.34931400
Ge   22.37194000    2.93417000   13.95048000      0.295620   -0.36929700   -0.65534100
Ge   19.02626000    7.88311000    6.82759000     -0.510128   -0.16115600    0.12374800
Ge   17.66536000   10.29402000   12.79357000      0.322410    0.19624300    0.11034100
Ge   20.36983000   16.72039000    1.38064000     -0.427220   -0.28418800   -0.17184800
Ge   18.84916000   15.35168000   13.98266000      0.221215   -0.05474200    0.06188600
Ge   19.07730000   20.73140000    5.27987000      0.454733   -0.70733900   -0.17300200
Ge   21.82317000   21.15988000   12.40772000      0.130314    0.41132600    1.72664700
Ge    4.28569000    2.46416000    3.16301000     -0.449622    0.78648000   -0.42057900
Ge    5.92628000    0.89329000   13.12041000      0.648405   -0.63365700    0.05154900
Ge    4.16767000    7.83375000    4.13198000      0.311744    0.59673400   -0.58392200
Ge    6.72836000    5.12078000   14.62503000      0.620066   -0.39422600   -0.55540100
Ge    4.35306000   12.27502000    1.77320000     -0.681208    0.70542500    0.14357400
Ge    4.29723000   10.72062000   12.56789000      0.065732   -0.26196900   -0.22361600
Ge    4.42919000   21.91094000    6.48569000     -2.561204    1.27564400    1.25495000
Ge    6.53231000   19.37338000   12.45262000      0.639291    0.25290700   -0.31305700
Ge   11.04676000    3.65339000    2.85172000     -0.619313   -0.33859500    0.30426100
Ge    8.54018000    4.46977000   12.68320000      0.140746   -0.14260100   -0.42507800
Ge   11.62200000    8.02677000    1.29948000      0.314403    0.00391000    0.07692000
Ge   11.15075000    7.25490000   12.51505000     -1.126360    0.44736400    0.63367000
Ge    8.09492000   14.02840000    1.53302000      1.368081   -0.24812300   -0.46052500
Ge    8.35415000   13.38115000   10.51804000      0.197473    0.26786800    0.22560200
Ge   11.89057000   21.20337000    1.28718000      0.054733    0.64129800    0.31987300
Ge   11.12653000   19.63844000   12.82691000      0.137279   -0.58271900   -0.95821000
Ge   22.10427000    0.14167000   16.93230000      0.738227    2.15694600    0.65683600
Ge   12.53457000    2.11813000   10.55643000      0.040704    0.17910700    0.03656700
Ge   16.56984000    7.14762000    1.89017000     -0.417925    0.35058800    0.54197700
Ge   15.25399000    7.64229000   10.43446000     -0.078478    0.13249700    0.73004500
Ge   18.17863000   11.80604000    1.75211000     -0.488460    0.67108100    0.55110100
Ge   16.56016000   16.17083000    9.10216000      0.597770    0.57201000   -0.26471300
Ge   17.00463000   20.62338000    2.73843000      2.058802    1.62505000    0.15118800
Ge   14.01055000   19.66762000   10.18041000     -0.080815    0.25603800    0.81062100
Ge   21.59689000    1.71040000    2.23669000      0.590279    0.52303900    0.65408200
Ge   21.11836000    1.56109000   10.15966000      0.162895   -0.00931600   -0.07841200
Ge    1.17237000    8.69194000    1.45884000     -0.460741    0.36124300   -0.01443700
Ge   21.65381000    8.93290000   13.11624000     -0.835254    0.11999100   -0.45796200
Ge   20.64902000   13.16769000    1.20826000     -0.742591    0.33806700    0.66124500
Ge    0.71906000   14.20875000    9.83552000      0.067011    1.46348500    0.06329300
Ge    2.03312000   18.87861000    4.49599000     -0.887770   -0.12491900    0.73774200
Ge   19.07466000   19.15831000   11.13255000      0.385077    0.08218100    0.28649400
Se   21.12835000    0.24199000    0.56331000     -0.466670   -0.76491300   -0.99217100
Se    1.27068000    1.43850000    9.70448000      0.530072   -0.35255600   -0.58523100
Se    2.84384000    9.95393000    2.82795000     -0.010474   -0.54225200    0.45386000
Se   22.21398000    6.83082000   11.97723000      0.063573   -0.17175900   -0.09095000
Se   22.09832000   12.78251000   18.17426000      0.016446   -0.96050500   -0.26951400
Se    2.11552000   12.47715000    9.06744000     -0.448361    0.12082500   -0.04491100
Se    2.67013000   16.64411000    5.70888000      0.256287    0.55636800   -0.79210500
Se    1.36711000   16.80464000   11.11480000      0.081199   -0.77167000   -1.04782000
Se    5.32435000    2.76095000    0.93990000      0.281833   -0.29617900    0.15976000
Se    6.19035000    4.19682000   11.47906000      0.150939   -0.81472600    0.47351100
Se    6.87743000    6.01548000    2.15109000     -0.463960    0.02983400   -0.97813400
Se    7.85028000    6.97372000   12.52105000      0.566173    0.51389800    0.20893600
Se    7.89243000   10.32677000    1.22812000      0.523456    0.08058000   -0.98439700
Se    6.24021000   12.82538000   13.57268000      0.535563   -0.37531300    0.27137900
Se    6.13030000   20.10679000    2.13618000     -0.504179    0.06790700   -0.12640000
Se    8.75430000   18.95363000   10.54820000     -0.368796   -0.22870500    0.04198600
Se   12.40206000    1.36832000    0.58604000      0.541600    0.39853300    0.20600300
Se   12.01372000    1.84235000   13.07969000      0.522374    0.33395000    0.44559900
Se   12.43420000    7.70213000   17.88579000     -0.315067   -0.62698500    0.42283400
Se    9.29506000    9.53216000   10.10054000      0.930822    0.42435200    0.00076500
Se   12.92824000   13.46107000    1.77086000     -0.701990   -0.08834800    1.71153400
Se   12.32724000   10.85794000    8.12871000     -0.769854   -0.09440500    0.08320100
Se   13.80410000   16.70157000    2.27863000     -0.359922    0.07132100   -0.15735200
Se   12.15607000   17.81997000   10.30828000      0.230589   -0.84670100    0.28380900
Se   18.71171000    3.33550000    3.04167000      0.834587    0.51521800    0.06286900
Se   16.32575000    1.78427000   12.64593000     -0.491320    0.36389300    0.25573400
Se   16.38207000    8.26945000   18.01490000     -0.763853   -0.80507600   -0.30731900
Se   17.60091000    5.65775000   12.43103000     -0.081593   -0.28713900   -0.06943800
Se   18.46254000    9.57211000    0.71321000      0.080583   -0.80576400    0.11381800
Se   17.67863000   14.18059000    6.81111000      0.055489    0.04362000    0.90984600
Se   20.67842000   19.28799000    0.67793000      0.164868    0.21860000    0.07804700
Se   15.75268000   18.69324000    8.96293000      0.722505   -0.58788200   -1.09445600
Se    1.39966000    2.67874000    1.98327000      0.251597   -0.69109600   -0.49551900
Se    5.36962000    7.58422000    9.97584000     -0.264329   -0.10583500    0.70948700
Se    5.72134000   10.22459000    2.13699000     -0.183001   -0.55359700    0.73064300
Se    4.55952000   11.71041000    9.91003000      0.760459    0.23313600    0.38836000
Se    2.92915000   15.31971000    1.44952000     -0.097990    0.14368500   -0.52532200
Se    2.15054000   13.52954000   13.02788000     -1.151604   -2.39155300   -0.78847200
Se    3.06175000   21.45438000   18.46097000      0.853194    0.35330200    0.43793400
Se    5.80498000   20.84923000   10.11878000     -0.104773   -0.31324300    0.01055600
Se   12.30533000    5.53610000    1.86695000      0.603471   -0.31389000   -0.08642200
Se    6.36601000    5.34533000    7.79012000      0.459027    0.32781900   -0.25880700
Se   11.58463000   10.61336000    1.17533000     -0.000872   -0.06101000    0.00685800
Se    6.86403000   10.72864000   10.37960000     -0.260000    0.29127700    0.43227800
Se    9.88903000   15.91929000    1.94826000      0.815741   -1.15798800    0.20978600
Se   12.95042000   12.78992000   12.77336000      0.669884   -0.14681600   -0.02847900
Se   10.14299000   21.37511000   18.41423000     -0.329836    0.47908900   -0.74211500
Se    8.49745000   22.19786000   12.69121000     -0.219356    0.43078400   -1.25267600
Se   15.65546000    4.50940000   18.73904000     -1.218076    0.91983300    1.66661800
Se   17.12716000    6.69363000    8.84592000      0.413478    0.64165100   -0.68718000
Se   14.51144000   10.62140000    0.13236000      0.705805    0.26857500   -0.72195800
Se   15.13295000   11.60122000   12.32003000     -0.458325    0.18107300    0.30540700
Se   17.85900000   14.85518000    2.92299000     -0.145066    0.14912700    0.16896100
Se   15.92896000   11.88894000    9.87562000     -0.240588   -0.25825400    0.41222900
Se   17.28088000   22.41936000    0.93588000      0.920345   -0.52928100    0.54118900
Se   14.87728000   21.14571000    7.59922000     -0.059826   -0.53651200    0.26322500
Se   21.84845000    4.95823000    0.89637000      0.808335   -1.16296800   -0.90948400
Se   20.88532000    3.63737000   11.72208000      0.208422   -0.24142300   -0.24916700
Se   20.58958000    6.80261000    1.23811000     -0.732218    1.33038900    0.68063000
Se   21.18926000   10.22590000   10.99304000     -1.188171    0.51273900    0.41995600
Se   19.28880000   14.76081000   18.44504000     -0.231941   -0.02402100    0.99653600
Se   20.74607000   16.77476000   12.55282000      0.057641   -0.26976500   -0.01836900
Se   20.80862000    0.24658000    4.21559000      0.096613    0.44449000   -0.04599600
Se   17.10676000   20.66852000   11.09885000      0.194816    0.39206600   -0.01207500
Se    2.85557000    4.95019000    8.01573000     -0.460204   -0.49465000   -0.17059400
Se   21.91372000    3.47078000   16.94567000     -0.372211    0.16011100   -0.50850900
Se    2.63084000    9.62836000    8.56372000      0.495600   -0.48642900   -0.18736400
Se    1.56613000    9.56004000   16.91691000     -0.430263    0.68541400    0.14992300
Se    4.82723000   17.55005000    8.24278000      0.586663   -0.28678900   -0.29579800
Se    0.20309000   18.19074000   16.03253000      0.104288   -0.50664700   -0.91328900
Se    1.09111000   19.45759000   13.07367000      1.407084    0.57581200    0.03204400
Se    1.22725000   20.80674000   17.22362000     -0.076010   -0.36396200   -0.23323800
Se    5.41355000    3.90820000    4.92824000     -0.182204   -0.74387300   -0.08247200
Se    5.17504000    6.12998000   18.03902000      0.661401   -1.36876500   -0.57418900
Se    5.69933000    9.23473000    6.01320000     -0.403228   -1.33806400    0.05907600
Se    4.31010000    7.03248000   15.85125000     -0.253547    1.58182200    0.88512900
Se    6.75449000   15.03354000   11.58624000     -0.335446   -0.28040800   -1.21796700
Se    6.09921000   16.58359000   18.60718000      0.542413   -0.86746900   -0.79060000
Se    9.98058000   18.25051000    6.43575000      0.440431    0.07262300    0.13414000
Se    6.34650000   19.52474000   17.96527000     -0.005128    1.90507000    3.04403700
Se   10.00531000    2.64428000   10.19174000      0.015885   -0.16449900   -0.75060600
Se   12.57031000    3.44000000   16.45954000      0.262869   -0.22316300   -0.02006800
Se   13.32830000    7.55066000    7.16817000      0.402016   -0.73039800   -1.04500800
Se   13.91668000   10.16819000   16.15924000     -0.390924    0.82943900   -0.42528900
Se   11.49686000   14.95133000    7.78439000     -0.794583   -0.53948800   -0.43034800
Se   14.40240000   16.33021000   17.91002000     -0.590503   -1.54352200   -0.01586900
Se   11.82615000    0.28552000    7.51132000      1.271705    0.00577300   -0.33731000
Se   14.71091000   19.71164000   17.21861000      0.669322   -0.04758400    0.06260500
Se   13.74436000    4.57734000   10.32024000     -0.299965    0.13285800    0.16100300
Se   20.29263000    2.48608000   15.38525000      0.476053   -0.11382200    0.55903700
Se   18.57020000   10.08424000   10.25006000      1.010965   -0.21785300    1.26886100
Se   17.66979000   10.51820000   15.75512000     -0.060858   -0.17756700   -0.66659900
Se   14.43560000   16.42704000    6.89516000      0.436995    0.24151100   -1.37013700
Se   19.91248000   13.16032000   15.12180000     -0.701197    1.04198900   -0.43934300
Se   18.91059000   21.07095000    7.77357000     -0.153972    0.29022800    0.52132400
Se   18.75149000   19.01010000    2.83129000      0.237362   -0.53423500    0.48827900
Se    5.53652000    1.32822000    7.73112000      0.967426    0.80150100   -0.78127400
Se    3.72812000    2.57674000   17.74891000      0.378458    0.28557900   -0.62217100
Se    7.72138000    9.08860000    8.14760000      0.555158    0.19047400   -0.59593600
Se    4.45604000    9.39605000   18.74980000     -0.185123    0.60992100   -0.35603500
Se    6.39807000   17.21592000    5.48899000      0.804775   -0.21883700    0.82294800
Se    5.29819000   12.73663000   18.47949000      0.168002   -0.47090500   -0.73546500
Se    1.93548000   20.24181000   10.31985000      0.039516   -0.76176100   -0.27761200
Se    1.65329000   19.37791000    1.97060000      0.390554   -0.28717800   -0.25562900
Se    8.64221000   21.88017000    8.63535000      0.460585    0.36958900   -0.32224700
Se    9.21991000    3.42262000    1.04858000      0.133513    0.23493600   -0.24607800
Se    9.86305000    5.65685000    8.45895000      0.534877   -0.27044800    0.11429500
Se    9.19623000    6.72497000   18.46467000      0.374318   -0.17195400    0.28040200
Se    9.25358000   12.26247000    5.64387000     -0.293381   -0.22818900    0.16502700
Se    7.78339000   14.87084000   18.02078000     -0.191868   -0.03459100    0.02063600
Se   12.09347000   21.96558000   10.99121000     -0.380467   -0.65944200   -0.04814400
Se   11.09338000   13.86469000   17.33517000      0.878632   -0.95731800    0.75344800
Se   15.37192000    0.86745000    7.75827000      0.652024    1.10016900   -1.41114300
Se   16.80761000    2.95174000    1.06589000     -0.330952   -0.56842800    0.07657400
Se   15.55649000    4.90797000    7.17139000      0.279538   -0.52459300    0.31010600
Se   15.25268000    6.93814000   16.19883000      0.441259    0.45113200    0.38549100
Se   15.98655000    9.62279000    8.82514000     -0.043602    0.29747900    0.56781100
Se   14.32013000   13.13440000    0.05559000      0.877917   -0.54600700   -1.40667700
Se   13.47999000   19.07419000    5.39490000      0.148869   -0.23563000    0.78357900
Se   17.40366000   17.72791000    0.27204000      0.393661   -0.06506900   -0.03316400
Se   21.04225000    1.99968000    7.49645000     -0.627938   -0.13046700    1.29313100
Se    0.74725000    0.44399000   13.75799000     -0.451947    0.47421100   -0.04841900
Se   20.73419000    7.38251000    9.48258000      0.014877   -1.06149400   -0.51379500
Se   21.20541000    7.39545000   16.89919000      0.575630   -0.00267200    0.71591000
Se   21.31181000   10.97638000    7.26304000      0.561508   -0.00867600    0.18467400
Se   20.09784000   11.47588000   17.14334000      0.509387    0.05490700    0.37183100
Se   19.20853000   17.25858000    7.83482000     -0.374792    0.11803400    0.01005100
Se   19.83563000   17.07652000   16.00243000     -0.657448    0.86148400   -0.01091500
Se    3.49906000    0.30174000   11.95633000      0.610380   -0.35961000   -0.48200800
Se    2.80944000    2.26373000   15.26793000     -0.490809   -0.45172000   -0.03546000
Se    0.42053000    7.62271000    8.08309000     -0.881596   -0.50486200    0.65561200
Se    1.17297000    9.77804000   14.04198000     -0.268359    0.62101100    1.33316200
Se    4.05881000   14.30131000    4.73888000     -0.268612   -0.15675800    0.40277100
Se    1.88824000   13.69586000   16.91040000      0.125966    0.55165500    0.58985000
Se    0.77978000   16.95711000    8.57837000     -0.498542   -0.46964400    0.76904000
Se    2.92445000   20.65426000   14.41700000     -0.945877   -1.25085800   -0.34626800
Se    6.98513000    1.21472000    3.63840000     -0.606898   -0.76568300   -0.92377600
Se    7.79562000    0.27572000    1.57558000     -0.575998   -0.34195700    0.39323500
Se    9.76398000    8.44066000    6.61303000     -0.881129    0.34189400   -0.63878200
Se    4.28122000    5.14598000   14.61379000     -0.303530   -1.16935200   -0.58417400
Se    5.44345000   11.81125000    5.12366000      0.491524    1.64868800   -1.77239600
Se    9.31579000   13.92944000   13.60568000      0.826128   -0.37131600    0.05361000
Se    8.39090000   17.77671000    3.79111000     -0.863943   -0.06827500    1.01222700
Se    7.58130000   16.60315000   14.66747000     -0.643418    0.09004300   -0.12050100
Se   13.90108000    0.77337000    4.08113000     -0.107281    0.08935400   -0.56016200
Se   13.83309000   22.15840000   16.15253000     -0.375925   -0.16031200    0.26575000
Se   11.76899000   10.13248000    5.09436000      1.196918   -1.00842200    1.03842200
Se   12.14607000    6.50832000   14.80034000     -0.810522    0.80297300    0.71896600
Se   13.83484000   12.55679000    5.62542000     -0.745371    0.72756700    0.28504200
Se   14.27844000   14.58707000   14.72697000     -0.650261    0.14997200   -0.52430400
Se   12.28195000   19.06994000    7.58642000     -0.354711    0.15370100   -1.09488800
Se   12.35801000   18.76606000    0.52471000     -0.104127   -0.07550300    0.26787500
Se   19.87308000    2.42091000    5.14662000      0.003963   -0.57863700   -0.29351700
Se   17.60017000    0.59617000   16.34575000      0.030201   -0.12352900   -0.02198700
Se   19.60449000    5.33313000    6.15410000     -0.541428   -0.19450800    0.14856100
Se   18.77983000    5.82595000   16.62339000      0.367366   -0.40469700   -1.45148200
Se   19.16975000   11.42951000    4.11419000      0.122444    1.34816300    0.00226900
Se   17.17606000   14.11032000   12.58534000      0.276006   -0.18444100   -0.06693900
Se   17.59067000   18.05277000    5.14746000      0.444658    0.51180400   -0.50840100
Se   17.70651000   19.83145000   15.44048000     -0.639680   -1.10181900   -0.48319300
Se    2.56146000    7.03759000    5.73451000     -0.566515   -0.12700500   -0.04484900
Se    1.60440000    6.74547000   13.63836000     -0.028249   -0.29311900    0.01813500
Se    1.54434000   11.71040000    5.47910000      0.465490   -0.56784800   -0.01294100
Se    3.80039000   10.41057000   15.09657000      0.464159    0.21160600   -0.03584300
Se    6.10653000   13.87485000    7.56435000      0.745334    0.65158700    0.94142200
Se    3.54619000   17.69114000   17.69174000     -1.122074    0.05833000   -0.39003500
Se    1.53883000   19.81765000    7.81567000      0.450032   -0.49680500    0.23551800
Se    6.90109000   21.58486000   15.44512000     -0.771689    0.25558100   -0.66265700
Se    9.20432000    0.49384000    4.65491000      0.646315    0.22718700    1.45260600
Se    7.50589000    1.74796000   17.30873000     -0.383282    0.17160700    0.63784400
Se   12.82361000   12.26520000    9.83839000     -0.135213    0.49619300    0.53917700
Se    9.86016000   10.44430000   17.27242000     -0.352376    1.50534600    0.98009900
Se    8.62348000   13.42948000    7.77980000     -0.379160    0.34019500    0.49865400
Se   11.49469000   17.15233000   14.19275000     -0.286763    0.74302900    0.66224800
Se   12.27133000   20.83458000    4.29058000     -0.574267   -0.28672500    0.31657400
Se   10.74069000   17.46360000   18.07105000     -1.329299   -0.05751500   -0.49963300
Se   11.16188000    4.12134000    6.83688000     -0.278761   -0.01887400    0.00960100
Se   17.56749000    3.68203000   16.31909000      1.236892   -0.22199400    0.07396900
Se   16.87227000    9.18953000    5.65830000      0.067022   -0.75105500   -0.57355100
Se   16.33168000    8.29073000   13.01491000     -0.095754   -0.67674100   -0.82243700
Se   17.31557000   12.04456000    5.82227000     -0.487817   -1.00088800   -0.26984100
Se   15.10619000   17.39168000   15.98772000     -0.415337    0.42161200   -0.89389600
Se   16.59800000    2.14641000    4.82457000     -0.081278    1.40756200    0.54688400
Se   18.16423000    3.23435000   13.26340000      0.485189    0.27371900   -0.14853800
Se    1.14242000    2.77635000    5.59030000      1.179551   -0.09049400   -0.57395000
Se   22.47828000    5.45479000   15.49059000     -0.208675   -1.30150100   -0.07865200
Se   18.93902000   13.02357000    8.73530000     -0.297195   -0.04751300   -0.71228100
Se   21.72751000   12.73546000   13.80213000      0.410990    0.01818700   -0.45475000
Se   21.56112000   14.89816000    6.28547000      0.096210   -0.44018000    0.02707000
Se   20.24552000   18.90337000   13.58521000     -0.143551    0.03872900   -0.97780500
Se   20.37794000   19.44704000    8.59643000     -0.125514   -0.26383200   -0.21210300
Se   21.22381000   20.87913000   15.91776000     -1.668903   -1.71134100   -0.68429400
Se    3.39652000    0.32373000    4.13194000      0.341650    0.24753200    0.41385100
Se    7.18327000    2.62147000   15.10345000     -0.166796   -0.41162700   -0.25323000
Se    2.24147000    6.65178000    0.42094000     -0.142125   -0.38370000   -0.12994300
Se    4.76501000    8.09431000   12.58518000     -0.399627    0.32934100   -0.73866000
Se    1.45859000   13.56952000    2.00059000      0.310659    0.11983000    0.01792400
Se    5.20368000   14.19145000   15.07684000     -1.018947   -0.30842400    0.29104000
Se    4.97381000   17.93677000    2.64455000      0.361012    0.19781700   -1.03141700
Se    4.76132000   17.78541000   12.02945000      0.014544   -0.03054600    0.13647900
Se   10.45491000    0.89178000    2.71430000      0.789055   -0.64965800   -0.50419800
Se   11.03458000    0.74366000   16.75785000     -0.386427   -0.10695400    1.27519700
Se    9.16330000    6.92976000    2.31378000      1.489392    0.78505600    0.15819800
Se    7.25160000    8.00794000   15.87126000      0.299939    1.01402700   -0.56567500
Se   10.48747000   10.76384000    3.37537000     -0.624917    0.78825300   -1.27370600
Se    9.51089000   10.33998000   12.61340000      1.192138    0.88551600   -0.62894500
Se    9.67324000   19.83975000    1.98609000      0.783051    0.06859400   -0.54460700
Se   14.96718000   18.39472000   12.48009000      0.073193    0.28795500    0.37719900
Se   14.57490000    3.08159000    5.88051000     -0.028401    0.15441900    0.10387100
Se   14.92993000    1.51910000   15.75189000      0.278012    0.11677100   -0.27951300
Se   15.72526000    5.90108000    4.07328000     -1.791796    1.57416400   -1.63680900
Se   12.68892000    8.26215000   11.00840000      0.486640    0.56544400   -0.36257900
Se   15.53324000   10.82433000    2.38132000      0.436084    0.19687300    0.34315700
Se   17.12324000   14.27617000   16.49479000     -0.323725    0.01401700   -0.22451300
Se   15.48722000   15.85642000    3.59350000      0.993775   -0.46715400    0.81158000
Se   14.52470000   22.01469000   12.66574000     -0.510399    0.12164700    0.03533400
Se    0.78567000   21.33901000    6.18321000     -0.266135    0.36620600   -0.39636300
Se   19.51448000   22.38314000   13.31316000      0.842198    0.28285300   -0.12793300
Se    0.02374000    7.43199000    3.21677000      0.013852   -0.02192700    0.54828100
Se   19.73795000    8.37862000   14.47462000     -0.264986    0.15849500   -1.25190300
Se    1.62530000   14.02865000    5.96213000     -0.367233   -0.00988700   -0.37712700
Se    0.05986000   15.89125000   14.69205000      0.293189    0.22360500    0.24968700
Se   21.71638000   18.40439000    4.62776000      0.836620    0.54446500   -0.67339600
Se   21.99465000   21.11765000   10.04321000     -0.486428    0.67804900   -0.46586400
Se    3.57371000    4.91204000    3.25950000     -0.246059    0.13932200   -0.08402800
Se    1.65693000    3.84205000   11.97344000      0.850210   -0.11033400   -0.55791800
Se   21.24833000   10.75966000    2.58879000      0.614404    0.40774700   -0.85798600
Se    1.65690000   10.25577000   11.76535000      0.486843    0.53997100   -0.29245200
Se   22.24974000   15.98711000   18.78871000      0.482084   -0.58263600    0.22716700
Se    3.02159000   15.55700000   12.93158000      1.274025    1.78559300   -0.31519800
Se    2.02050000   22.15851000    2.44796000     -0.444612   -0.28387700   -0.32970300
Se    5.66187000   19.47101000   15.85079000     -1.106236    0.71036400   -2.24708800
Se    9.14568000    4.34924000    4.82427000      0.209292   -0.11300800   -0.08602000
Se    9.79586000    2.48860000   14.32428000     -0.423638    0.66610600   -0.41900800
Se    6.80993000    6.33246000    4.42376000     -0.871899    0.67379100    1.67699300
Se    8.27408000   12.22798000   15.31653000     -0.209755   -0.20880000    0.08050300
Se    5.87377000   14.37107000    2.10450000     -1.243146    0.39500900    0.92111900
Se   10.46828000   14.69422000   11.39664000      0.025011    0.31319900   -0.44359700
Se    6.22563000   20.79647000    5.82489000      3.064765   -0.35028100   -0.06962800
Se    9.33722000   19.83528000   14.44742000      0.150181   -0.02858300    1.48493500
Se   13.75236000    2.47565000    2.35424000     -0.483134   -0.45517200    0.08680100
Se   11.58911000    5.06369000   11.86496000     -1.106771   -1.43229600   -0.70666000
Se   13.85944000    8.36051000    2.73283000     -0.569647   -0.33047800   -0.01127200
Se   11.08806000    9.39915000   14.21116000     -0.336442    0.21247400   -0.03117300
Se    8.92336000   14.05299000    4.15450000      0.423046    0.35406100    0.27978900
Se   14.90074000   14.74138000   10.20800000     -0.729619    0.13097300    0.59922600
Se   14.89710000   20.10750000    2.25977000     -2.121986   -0.49713100   -0.54401300
Se   13.44798000   20.24336000   13.79917000      0.456785   -0.24782500    0.85828200
Se   18.38756000    6.02472000    0.46026000      0.243966   -0.56108400   -0.14157200
Se   14.91770000    4.39127000   13.91393000      0.228588    0.23217700   -0.40758400
Se   18.46230000    7.76413000    3.84299000     -0.687522   -0.03664500   -0.15120700
Se   21.25492000   14.05222000   11.19514000     -0.588683    0.14237500    0.14271400
Se   20.87974000   14.90790000    3.39368000     -0.302611   -0.26717900   -0.76323500
Se   17.70729000   17.15256000   11.40935000     -0.519005    0.21293900    0.37187000
Se   16.88228000   21.79965000    4.82338000      0.114681   -0.34322900   -0.00031500
Se   17.28379000    1.59459000   10.47614000     -0.383826   -0.02878400   -0.73539800
