384
22.54784000 22.54784000 18.93360000
Ge    4.70101000    5.01324000    9.57654000      1.170001    0.10471200    1.15102500
Ge    4.52672000    7.30409000    1.12144000     -0.198785    0.48290300    0.94945600
Ge    4.03522000   10.97075000    6.84682000     -0.986352    0.18702200    0.34133100
Ge    6.47927000   10.06954000   17.58010000      0.696414    0.74520800   -0.19946500
Ge    4.57053000   14.30129000   10.44699000      0.173359    0.48462000    0.09521600
Ge    8.55796000   17.71182000    1.08389000     -0.697295    0.51586100   -0.55090100
Ge    7.30684000   19.69257000    8.32756000      0.037065   -0.58344700    0.37383500
Ge    5.35104000    0.25883000   17.19592000     -0.286757    0.02814200    0.29076200
Ge    8.31885000    7.30067000   10.10524000     -0.318544   -0.38103000   -0.46751800
Ge   11.53474000    5.09457000   18.40772000      0.083767    1.06334100    0.16911400
Ge   11.40656000    7.96835000    8.51990000     -0.777685    0.01389300    1.01061800
Ge    9.84742000   12.52159000    0.37705000      0.038357   -0.65340200   -0.40354700
Ge   10.07022000   17.21308000    9.09222000     -0.540163   -0.38648200    0.14054200
Ge   12.19312000   15.36512000    0.23644000     -0.853376    0.37567000    0.03896400
Ge    9.94285000    0.25059000   10.61408000     -1.573162   -0.12227400    0.62368400
Ge   15.35960000   21.50616000    0.06811000     -1.217723    0.10628500   -0.06103100
Ge   18.49364000    4.99339000    9.88500000     -0.006268   -0.42671100    0.91725600
Ge   18.82717000    8.67684000   17.24091000     -0.623905   -0.28067300   -0.27460900
Ge   18.56567000   14.80688000   10.69399000      0.382239    0.00289600   -0.17887300
Ge   17.44096000   11.40426000   18.01252000     -0.516101    0.70061400    0.24355300
Ge   13.28447000   15.93331000    8.84764000     -0.243172    0.29378900    0.92057700
Ge   16.73029000   15.13609000    0.05762000      0.553920   -0.43930000    0.12457500
Ge   15.94430000    4.09010000    9.74459000      0.926970    0.08668700   -0.95913100
Ge   18.90790000    3.39653000   18.78572000      0.374454    0.22210600   -0.26510400
Ge    1.10639000    3.82783000    9.37240000     -0.379508    0.83647900    0.89826400
Ge   21.34249000    4.08636000    3.12382000     -0.550311   -0.14975400    0.66098800
Ge    0.21804000   10.01728000    9.11010000      0.149448    0.01396900   -0.59557100
Ge   21.85103000    9.74448000   17.96779000      0.269551   -0.71217800    1.01883800
Ge   21.01407000   15.76019000    8.48385000      1.121516   -0.36812200    0.24197100
Ge    3.93096000   15.07022000   17.77235000     -0.005736   -0.14449700    0.81907300
Ge   19.12277000   22.43711000   10.89767000      0.176712   -0.59284200   -0.61069400
Ge   22.01565000   20.44161000    2.50229000     -0.420413   -0.41870600    1.02195900
Ge    4.29169000    7.17595000    7.58147000      0.413726    0.90860800   -0.48604100
Ge    1.64542000    7.16738000   16.77431000      0.073442   -0.54415400    0.54614400
Ge   20.33749000    9.27596000    4.13742000      1.148066   -0.58361000    0.66653000
Ge    2.91161000   12.70825000   15.05490000      1.743353    0.15340100    1.20804700
Ge    4.76205000   19.07343000    4.73159000     -0.799625   -0.63675000    0.19511100
Ge    0.74643000   18.20244000   18.55395000      0.494465    0.35009700    0.14710700
Ge    4.09447000   18.90839000    9.95795000     -0.140961    0.80973800    1.73140100
Ge    1.78332000    1.17951000   18.57379000     -0.291920    0.49965100    0.10488400
Ge    9.83561000    1.48641000    7.58956000     -2.550196    2.31950500    0.23655100
Ge    7.62828000    5.84723000   16.89873000     -0.928098   -0.29551700    0.66732500
Ge    7.82583000   10.36942000    3.92173000     -0.397373    1.02956600   -0.09910300
Ge    9.77145000    8.17028000   16.50001000      0.643820   -0.51829500   -0.53237900
Ge    7.28742000   16.23953000    8.32484000     -0.753539   -0.01246000    0.03036400
Ge    9.80736000   15.22297000   15.81060000     -0.646083    1.14818400   -0.26366000
Ge   10.25991000   21.04203000    6.37313000      0.332685   -0.18800700    0.21440800
Ge   10.48768000   22.44382000   14.36639000      0.169384   -0.42317000   -0.62012200
Ge   12.09967000    7.48318000    4.54706000      0.286066    0.41118700    0.15607000
Ge   15.27800000    4.49621000   16.42850000     -0.557009   -0.41344100   -1.38795300
Ge   14.29717000    9.78513000    6.97748000      0.877052    0.19537400   -0.75323600
Ge   15.29951000   12.40106000   15.04531000      0.354205   -0.76354300    0.11736000
Ge   12.45716000   15.45868000    5.38195000      0.535852   -0.60849800    1.15678200
Ge   14.85316000   18.15038000    0.52732000     -0.042711    0.73328200   -0.37674800
Ge   14.65053000    0.15993000    9.91417000      0.259565   -0.09922700    0.11517800
Ge   17.03133000   21.82974000   13.33230000      0.128603   -0.43902700    1.35337600
Ge   20.98635000    4.72278000    8.78512000      0.186759    0.16245600    0.10903100
Ge   19.73676000    5.77611000   14.04687000      0.166948    0.08026400    0.44442000
Ge   18.93271000   10.43315000    7.76614000      0.029508    0.98110100   -0.01249600
Ge   21.20206000   15.10963000   16.53946000     -0.324296   -0.89851600    0.59876800
Ge   19.06189000   15.91917000    5.39953000      0.225244    0.46352600   -0.57263400
Ge   17.47771000   17.47419000   16.74181000      0.554752    0.29736300   -0.41676900
Ge    0.67432000    1.06448000    7.10429000      0.034855    0.17527400    0.57027100
Ge   18.77996000   20.97692000   17.25748000      0.379499    0.62762300    0.08478600
Ge    7.48084000    3.28311000    6.53428000     -0.340515   -0.25848300    0.09332900
Ge    3.93085000    2.48028000   12.92272000     -0.776515    1.35062700   -0.01268500
Ge   22.53107000    8.93572000    5.88394000     -0.010031    0.70282600   -0.56256300
Ge    2.06965000    7.80814000   11.34042000      0.737724   -0.58557000   -0.34277400
Ge    0.81998000   15.76171000    3.80151000      0.056077   -0.10546700    0.34110200
Ge    2.63045000   17.80269000   15.06266000      0.152610    0.59755900    0.38850200
Ge    4.06094000    0.17899000    9.23150000     -0.502084   -0.71707100    0.69862200
Ge    7.74964000   17.85854000   16.78162000      0.790872   -0.30079900    0.14311300
Ge    7.31018000    3.52100000    2.68259000      0.218729    0.26371600    0.28551000
Ge    9.74478000    3.12644000   17.26054000      0.362402   -0.27056000   -0.11266600
Ge    8.49388000    8.06735000    4.34471000      0.357962   -0.23172000    0.51049600
Ge    7.24544000    9.47376000   12.89795000     -0.929755    0.05280000    0.50452800
Ge    6.50853000   14.62322000    5.21536000     -0.705834    0.15561400   -0.94225200
Ge   11.05945000   11.73191000   15.41607000      0.271152   -0.33906200    0.32985900
Ge    8.03543000   20.43894000    3.77544000     -0.318133   -0.43521500   -0.21446000
Ge    9.28403000   16.79825000   12.83420000      0.266497    0.00743700   -0.73539100
Ge   11.92783000    1.79774000    5.36375000      0.010986    0.14686500   -0.13409200
Ge   12.54251000    4.29091000   14.03825000      0.085423   -1.21100700    0.01239400
Ge   17.41686000    4.71057000    5.02193000      0.246542   -1.66018000    0.39167400
Ge   13.63309000    8.44368000   14.05757000      0.693869    0.55036400    0.16371500
Ge   14.98285000   13.11977000    3.66039000     -0.137542   -0.09772700   -0.31411600
Ge   13.34519000   16.48590000   12.75770000      0.427299   -1.11758200   -0.99325400
Ge   11.12621000   18.46143000    3.95655000      0.140205   -0.01686000    0.04932100
Ge   11.32956000   19.49229000   16.84962000      0.160983    1.11422500   -0.97189900
Ge   22.20802000    4.73664000    5.89764000      0.025427   -0.01213200   -0.39378300
Ge   22.39303000    2.94439000   13.94493000     -0.069625   -0.21664500   -0.42758900
Ge   19.00404000    7.92506000    6.85305000     -0.397855   -0.24665300    0.08409800
Ge   17.73236000   10.30066000   12.82370000      0.062172   -0.18158500    0.17194500
Ge   20.33191000   16.75048000    1.39488000     -0.427876   -0.38120200   -0.23695900
Ge   18.89006000   15.38848000   13.99680000      0.139382   -0.07232300    0.02221700
Ge   19.07824000   20.81421000    5.19727000      0.765514   -0.84164400    0.27435200
Ge   21.81721000   21.17859000   12.43803000      0.103695    0.25375700    1.36952900
Ge    4.24243000    2.45834000    3.17761000     -0.344088    0.90153000   -0.44024000
Ge    5.93471000    0.87678000   13.13196000      0.612710   -0.62319300    0.03216600
Ge    4.07783000    7.86062000    4.10509000      0.462415    0.51984800   -0.51561200
Ge    6.74226000    5.05807000   14.65402000      0.510095   -0.04659300   -0.81716500
Ge    4.37417000   12.30018000    1.79734000     -1.028148    0.63953400    0.56194500
Ge    4.27762000   10.70986000   12.51846000      0.036044   -0.30103100    0.00470800
Ge    4.34463000   21.96398000    6.45808000     -2.265549    1.25839500    1.40130500
Ge    6.56430000   19.36266000   12.42554000      0.476525    0.10860800   -0.24912300
Ge   11.03491000    3.63150000    2.80950000     -0.596064   -0.32197200    0.21251100
Ge    8.59313000    4.47630000   12.69192000      0.073828    0.01178000   -0.45519100
Ge   11.65978000    8.04855000    1.32244000      0.230709   -0.22270500   -0.23466500
Ge   11.18155000    7.29360000   12.42993000     -1.719000   -0.15101400    1.65517700
Ge    8.09499000   14.03645000    1.56921000      1.553488   -0.29056300   -0.69074000
Ge    8.34551000   13.28776000   10.53415000      0.049594    0.40849500    0.29625500
Ge   11.91956000   21.19338000    1.28798000     -0.246131    0.87324000    0.32487700
Ge   11.11200000   19.57795000   12.79280000      0.246387   -0.52848900   -0.75165500
Ge   22.08801000    0.16227000   16.86483000      0.940539    2.01635600    0.75162100
Ge   12.52046000    2.08830000   10.48788000      0.065255    0.38526900    0.39542500
Ge   16.54038000    7.08239000    1.90500000     -0.365109    0.33132000    0.55346800
Ge   15.30290000    7.55944000   10.47501000     -0.135433    0.19618500    0.66902600
Ge   18.20306000   11.75631000    1.72416000     -0.593129    1.10494100    0.66217200
Ge   16.52745000   16.21917000    9.15124000      1.167164    0.84004900   -0.55174600
Ge   17.04731000   20.72446000    2.68030000      1.632805    0.82071200    0.55347400
Ge   14.06635000   19.71967000   10.20616000     -0.491386    0.30609100    1.18406500
Ge   21.63916000    1.70364000    2.25160000      0.339257    0.36577000    0.42375000
Ge   21.13457000    1.57891000   10.12504000      0.066686    0.03836600    0.20641900
Ge    1.15360000    8.72335000    1.48234000     -0.519533   -0.11011900   -0.32861100
Ge   21.65710000    8.88099000   13.11137000     -1.044680    0.46891600   -0.16852500
Ge   20.61215000   13.18353000    1.17637000     -0.534013    0.30935800    0.46259800
Ge    0.69010000   14.21039000    9.79434000      0.369668    1.34588200    0.04505200
Ge    2.07680000   18.83772000    4.48481000     -1.042009   -0.12659400    0.80195900
Ge   19.11658000   19.21327000   11.07696000      0.393308   -0.31767900    0.54299500
Se   21.11267000    0.20475000    0.56805000     -0.334873   -0.40827200   -0.70581700
Se    1.24433000    1.42076000    9.60957000      0.578256   -0.51681100   -0.51525500
Se    2.82218000    9.90220000    2.84181000      0.094211   -0.38583900    0.56990200
Se   22.19335000    6.80037000   12.04991000      0.187745   -0.37167100   -0.37876800
Se   22.07245000   12.78017000   18.12134000      0.090123   -0.94570300   -0.13741600
Se    2.16586000   12.47825000    9.07106000     -0.744293    0.34530900   -0.07977300
Se    2.71033000   16.64450000    5.69041000      0.136105    0.66948300   -0.82270100
Se    1.35003000   16.75684000   11.06520000      0.164315   -0.72448600   -0.87127000
Se    5.29393000    2.72731000    0.94457000      0.263499   -0.26561500    0.20201700
Se    6.16646000    4.27786000   11.55312000      0.158695   -0.80761400    0.34103400
Se    6.88779000    5.99365000    2.14369000     -0.398144    0.18232600   -0.46481500
Se    7.83806000    7.02255000   12.55758000      0.658712    0.21147200    0.09682700
Se    7.92726000   10.29313000    1.18385000      0.208098    0.17216500   -0.82457900
Se    6.20872000   12.78736000   13.64195000      0.678572   -0.47897500    0.14691400
Se    6.14980000   20.10338000    2.09556000     -0.541611   -0.00405100   -0.13685900
Se    8.74658000   18.94681000   10.51435000     -0.297526   -0.24759700    0.12696000
Se   12.34515000    1.36925000    0.56033000      0.606422    0.52140700    0.42728000
Se   12.07397000    1.84864000   13.09850000      0.307447    0.43474400    0.20008400
Se   12.43307000    7.70263000   17.87168000     -0.419322   -0.61479600    0.62101000
Se    9.32997000    9.59488000   10.13344000      0.487743    0.01795600   -0.05414300
Se   12.93633000   13.51164000    1.75727000     -0.570855   -0.52274800    1.66801900
Se   12.38518000   10.85427000    8.11027000     -0.854456   -0.23902400   -0.05417700
Se   13.78338000   16.63656000    2.27969000     -0.293902    0.36529800   -0.14589300
Se   12.20249000   17.85195000   10.33452000      0.112211   -0.99303500    0.15079300
Se   18.68207000    3.35928000    3.04512000      1.078121    0.37239100    0.15047300
Se   16.33679000    1.78451000   12.67590000     -0.882659    0.21378000    0.34109900
Se   16.38796000    8.22292000   18.02812000     -0.554837   -0.65764700   -0.37352700
Se   17.61183000    5.59572000   12.48344000     -0.177630   -0.13410200   -0.14873000
Se   18.44452000    9.57873000    0.72917000      0.064276   -1.18880700    0.06582400
Se   17.68048000   14.20796000    6.85222000     -0.075041   -0.37191100    0.65744500
Se   20.72508000   19.31262000    0.71815000     -0.093987    0.00933700   -0.31078900
Se   15.72484000   18.72424000    8.96029000      1.043750   -0.68380400   -1.46720800
Se    1.39196000    2.63832000    1.98563000      0.409288   -0.62010500   -0.43714600
Se    5.33031000    7.64353000    9.95693000     -0.041955   -0.19361400    0.78401100
Se    5.74390000   10.26677000    2.12488000      0.243875   -0.79935200    0.68390900
Se    4.55826000   11.72761000    9.90423000      0.749941    0.19849000    0.37177300
Se    2.96292000   15.35477000    1.46910000     -0.426229   -0.26432800   -0.63349200
Se    2.13964000   13.47609000   13.01950000     -0.696091   -0.95325500   -1.35582800
Se    3.11928000   21.52591000   18.47876000      0.415445   -0.21419000   -0.08657700
Se    5.87389000   20.71962000   10.12492000     -0.591635    0.26263600    0.23906800
Se   12.34356000    5.53185000    1.92032000      0.537738   -0.33112900   -0.29838700
Se    6.34156000    5.34497000    7.76674000      0.682970    0.29108200   -0.42780400
Se   11.54552000   10.60179000    1.22457000      0.343185   -0.05475600   -0.63647100
Se    6.81259000   10.72282000   10.34436000      0.055727    0.16491100    0.47743900
Se    9.90639000   15.90940000    1.94147000      0.796795   -1.13927700    0.21051300
Se   12.94588000   12.77199000   12.77959000      0.620620   -0.11302900    0.02838700
Se   10.17769000   21.42561000   18.36951000     -0.269721    0.23638200   -0.60434500
Se    8.50491000   22.20380000   12.64228000     -0.157046    0.42230600   -1.06414000
Se   15.62031000    4.51747000   18.71044000     -1.166513    0.90650000    2.28845700
Se   17.17730000    6.68210000    8.83255000      0.096822    0.90478900   -0.84250600
Se   14.49996000   10.58791000    0.11651000      0.920376    0.49232100   -0.67850300
Se   15.13497000   11.64911000   12.35049000     -0.454093    0.12409800    0.44166500
Se   17.89694000   14.89872000    2.92336000     -0.102168    0.14873100    0.24147500
Se   15.97737000   11.81562000    9.87427000     -0.206396   -0.02295800    0.34220600
Se   17.34850000   22.42329000    0.93048000      0.904636   -0.25226800    0.33850400
Se   14.89101000   21.10405000    7.60457000      0.044758    0.06481600    0.30309600
Se   21.86526000    4.93497000    0.89572000      0.857282   -1.47278900   -0.58118600
Se   20.86152000    3.71632000   11.70855000      0.331232   -0.44540700   -0.41517600
Se   20.65571000    6.79273000    1.17889000     -1.123418    1.40037000    0.61685100
Se   21.17354000   10.26086000   11.01570000     -1.146217    0.35103700    0.51106400
Se   19.28499000   14.76772000   18.40741000     -0.361785   -0.09219100    0.89122900
Se   20.76424000   16.78158000   12.53096000     -0.089793    0.00768100    0.10730200
Se   20.80674000    0.20319000    4.26431000      0.163387    0.45559000   -0.24815600
Se   17.10714000   20.64312000   11.13884000      0.162194    0.38939800   -0.42750600
Se    2.88032000    5.00629000    8.03738000     -0.770812   -0.71627100   -0.21208600
Se   21.92877000    3.49545000   16.97539000     -0.649228    0.01607100   -0.91645500
Se    2.63935000    9.60769000    8.55182000      0.388134   -0.52843200   -0.13779100
Se    1.52889000    9.58559000   16.91411000      0.001774    0.98220100   -0.02692200
Se    4.84992000   17.59891000    8.27955000      0.799759   -1.10119100   -1.37170600
Se    0.22272000   18.16440000   16.02623000      0.032237   -0.42154900   -0.87218300
Se    1.09038000   19.40982000   13.08695000      1.311759    0.89202700    0.07333500
Se    1.22877000   20.75465000   17.19170000      0.376773    0.25246000    0.15067100
Se    5.39934000    3.90197000    4.92863000     -0.194334   -0.68329500   -0.08621400
Se    5.14675000    6.19710000   18.01724000      0.962081   -1.84045700   -0.68244900
Se    5.73304000    9.29095000    5.96022000     -0.647836   -1.16713600    0.11462500
Se    4.30532000    6.97773000   15.85659000     -0.379257    1.68837400    0.47628700
Se    6.73827000   15.01350000   11.60638000     -0.187504   -0.48311200   -1.29146700
Se    6.10538000   16.62240000   18.62294000      0.528151   -0.83274700   -0.83710600
Se    9.98668000   18.27478000    6.44330000      0.312767   -0.06349700   -0.01178700
Se    6.29396000   19.53499000   17.98309000      0.156540    1.48187900    2.05286100
Se   10.01987000    2.68180000   10.17386000     -0.038601   -0.55151800   -0.57277000
Se   12.52654000    3.46611000   16.47513000      0.254028   -0.14597900    0.03190700
Se   13.30761000    7.52216000    7.13934000      0.537507   -0.87919100   -1.12193000
Se   13.90943000   10.21025000   16.16921000     -0.327421    0.70155700   -0.45653400
Se   11.45046000   14.95433000    7.80857000     -0.819560   -0.56764400   -0.54374700
Se   14.39041000   16.27484000   17.96012000     -0.316693   -1.03779100   -0.97604800
Se   11.76814000    0.32716000    7.58641000      2.597528   -0.65903500   -0.50711200
Se   14.67689000   19.77617000   17.25473000      0.695614   -0.28641500   -0.00303600
Se   13.73775000    4.58575000   10.32721000     -0.131143    0.03698600    0.14469500
Se   20.24204000    2.45001000   15.36931000      0.922855    0.03902900    0.73924800
Se   18.61515000   10.08959000   10.32041000      1.109200   -0.12879200    0.95389800
Se   17.71541000   10.57281000   15.73590000     -0.204681   -0.18345400   -0.28040500
Se   14.38496000   16.42441000    6.87907000      0.567217    0.36873700   -1.61642900
Se   19.95034000   13.14869000   15.08804000     -0.826929    1.15988800   -0.24312100
Se   18.94160000   21.08272000    7.77632000     -0.309424    0.38433200    0.11181000
Se   18.77764000   18.96737000    2.86797000     -0.196227   -0.04118400    0.54852500
Se    5.54035000    1.31405000    7.73738000      0.437176    0.36485000   -0.33717300
Se    3.75492000    2.61225000   17.72970000      0.157144    0.06715700   -0.35742100
Se    7.75093000    9.16066000    8.07097000      0.652909    0.06691400   -0.16796200
Se    4.45323000    9.43028000   18.71714000     -0.548048    0.35142400    0.00317600
Se    6.41262000   17.23765000    5.54784000      0.782256   -0.31310600    0.62631400
Se    5.24063000   12.67734000   18.54228000      0.288758   -0.14211600   -1.35518300
Se    1.90925000   20.17602000   10.34639000      0.094940   -0.68262400   -0.26548300
Se    1.72124000   19.37738000    1.97299000      0.216163   -0.15736200   -0.38304400
Se    8.68163000   21.88369000    8.64665000      0.169952    0.09191500   -0.37477200
Se    9.14554000    3.39348000    1.01879000      0.356882    0.28915900   -0.24063300
Se    9.84696000    5.63862000    8.44436000      0.624389   -0.19164400    0.02259700
Se    9.16738000    6.79717000   18.47412000      0.346515   -0.48528000    0.54451200
Se    9.20577000   12.22005000    5.64426000     -0.543176    0.06472500   -0.36574900
Se    7.75291000   14.91100000   18.03148000      0.004103   -0.14245600   -0.12415500
Se   12.10496000   21.96038000   10.96010000     -0.294559   -0.75800600   -0.09199900
Se   11.07515000   13.89057000   17.32729000      0.841125   -1.14367900    0.65307400
Se   15.42034000    0.87655000    7.74717000      0.240474    0.36756300   -0.75534100
Se   16.80515000    3.01491000    1.06889000     -0.401368   -0.75957200    0.21578300
Se   15.55944000    4.89753000    7.18279000      0.242197   -0.62691700    0.31858000
Se   15.22291000    6.87588000   16.23184000      0.483814    1.13833700    0.34930100
Se   16.00142000    9.61940000    8.87109000     -0.223733    0.03028900    0.37549400
Se   14.35287000   13.14966000    0.05065000      0.639733   -0.72201900   -1.22675600
Se   13.47623000   19.06062000    5.39461000      0.037755   -0.15163800    0.74347800
Se   17.41568000   17.70769000    0.25193000      0.330200    0.13779700    0.18317000
Se   21.01067000    1.97794000    7.47298000     -0.671215   -0.04849400    1.34168700
Se    0.71922000    0.52206000   13.73833000     -0.352962    0.05590600    0.10659200
Se   20.70343000    7.37856000    9.46809000      0.103723   -0.93950300   -0.48415000
Se   21.22539000    7.41162000   16.82540000      0.561966    0.06405100    0.89527100
Se   21.35935000   10.96719000    7.28673000      0.138342    0.13695400   -0.06890100
Se   20.09546000   11.40934000   17.14712000      0.239458    0.36080000    0.16681200
Se   19.21958000   17.25497000    7.86424000     -0.623600    0.24298800   -0.18827000
Se   19.87510000   17.08083000   16.03182000     -0.801044    0.81461200   -0.06961600
Se    3.49177000    0.29071000   12.04149000      0.554937   -0.64845700   -0.64643200
Se    2.84544000    2.25629000   15.26313000     -0.561207   -0.51400500   -0.07683100
Se    0.40250000    7.62503000    8.08306000     -0.833717   -0.45489100    0.60648400
Se    1.12639000    9.77883000   14.09570000      0.011648    0.77244500    0.52497300
Se    4.02944000   14.27713000    4.66941000      0.374760   -0.18284300    0.69438500
Se    1.90429000   13.73268000   16.92681000      0.054283    0.23620600    0.22324100
Se    0.80349000   16.97099000    8.59562000     -0.606744   -0.54772200    0.63105200
Se    2.88545000   20.63948000   14.38498000     -0.936603   -1.29561800   -0.34802000
Se    6.96243000    1.26044000    3.65122000     -0.179404   -1.09378400   -1.16834700
Se    7.79309000    0.28502000    1.50161000     -0.599556   -0.31501000    0.88461200
Se    9.71405000    8.42129000    6.60277000     -0.701286    0.19832900   -0.58860800
Se    4.29349000    5.06928000   14.61921000     -0.337504   -0.91778400   -0.43332700
Se    5.44525000   11.82466000    5.09869000      0.005239    1.32667700   -1.18216000
Se    9.32801000   13.92483000   13.58648000      0.731473   -0.38675000    0.19334100
Se    8.35625000   17.72547000    3.79022000     -0.718160    0.18859000    0.99423600
Se    7.56126000   16.62613000   14.63051000     -0.793640    0.01000300   -0.16387100
Se   13.89174000    0.78330000    4.03316000      0.024400   -0.17937200   -0.30684800
Se   13.83066000   22.17180000   16.09863000     -0.384137   -0.02027400    0.28422500
Se   11.77825000   10.11171000    5.03798000      1.366756   -1.02197400    1.37776200
Se   12.14773000    6.47043000   14.86007000     -0.827660    1.29913700    0.39370200
Se   13.86723000   12.53015000    5.64768000     -0.511289    0.81430800   -0.01894600
Se   14.26503000   14.55135000   14.77232000     -0.689060    0.36066900   -0.51218100
Se   12.22328000   19.02609000    7.58953000     -0.268713    0.24170400   -1.10516000
Se   12.28438000   18.77810000    0.59437000      0.314174   -0.44698700    0.20224900
Se   19.90586000    2.33464000    5.21742000     -0.218399   -0.29431600   -0.66558900
Se   17.65093000    0.60996000   16.33119000     -0.045005   -0.18051800    0.03252200
Se   19.57681000    5.35669000    6.15993000     -0.250063   -0.17614200    0.21659800
Se   18.83124000    5.87568000   16.61388000      0.127547   -0.69648300   -1.26607400
Se   19.15584000   11.43426000    4.06451000      0.251833    1.35723500    0.27385000
Se   17.18107000   14.15036000   12.57519000      0.167459   -0.31434200    0.23846300
Se   17.58270000   18.07584000    5.13062000      0.297183    0.45055000   -0.54529400
Se   17.70796000   19.76392000   15.49456000     -0.532735   -0.77832800   -0.41226900
Se    2.54750000    6.99199000    5.76755000     -0.675088    0.01679900   -0.24560000
Se    1.59432000    6.69555000   13.65724000      0.046659   -0.12180800   -0.07507000
Se    1.58129000   11.72400000    5.45835000      0.467373   -0.41896000    0.04466000
Se    3.79816000   10.44305000   15.07487000      0.341942    0.22193600   -0.01467500
Se    6.12644000   13.83991000    7.53776000      0.267020    0.58634700    1.07916500
Se    3.52348000   17.63975000   17.72863000     -1.145013    0.18869800   -0.48870600
Se    1.56352000   19.80884000    7.85871000      0.216498   -0.19490600   -0.03920200
Se    6.91098000   21.53244000   15.41774000     -0.929419    0.21598600   -0.52321900
Se    9.21196000    0.49315000    4.67851000      0.509804    0.26253300    1.06105000
Se    7.51100000    1.76840000   17.27955000     -0.496612   -0.01741400    0.83124500
Se   12.83447000   12.23986000    9.83308000     -0.090093    0.46475200    0.61837900
Se    9.84809000   10.38796000   17.33952000     -0.025851    1.53652900    0.37006300
Se    8.53134000   13.43436000    7.83613000     -0.063582    0.38382300    0.57101000
Se   11.51657000   17.16349000   14.20605000     -0.350627    0.72367100    0.57824700
Se   12.33619000   20.87642000    4.31696000     -0.750690   -0.53501100    0.28215900
Se   10.71720000   17.52530000   18.05670000     -1.371638   -0.73082200   -0.15944300
Se   11.11091000    4.16567000    6.83486000     -0.179709    0.05356200    0.01481700
Se   17.60106000    3.68558000   16.32806000      1.091499    0.01892100    0.24695700
Se   16.89323000    9.16552000    5.66729000     -0.123965   -0.59156800   -0.66547500
Se   16.35837000    8.24730000   13.01995000     -0.086294   -0.40025900   -0.87285900
Se   17.33869000   11.99656000    5.79047000     -0.343840   -0.69689200   -0.01316600
Se   15.12159000   17.39832000   15.96495000     -0.665925    0.22907600   -0.30534400
Se   16.61268000    2.09069000    4.82331000     -0.306326    1.58043300    0.67444200
Se   18.15837000    3.18298000   13.24262000      0.843714    0.54506800    0.12435500
Se    1.15028000    2.76996000    5.55122000      0.882783    0.22741400   -0.39105700
Se   22.43164000    5.46356000   15.48135000     -0.030284   -1.35069900    0.13428400
Se   18.92079000   13.02635000    8.70714000     -0.293381    0.02021800   -0.73836100
Se   21.78100000   12.75663000   13.81003000      0.479867    0.00161200   -0.50711800
Se   21.56699000   14.90192000    6.23853000      0.088435   -0.38894200    0.02652000
Se   20.23773000   18.94189000   13.61743000     -0.098736   -0.17072800   -1.11237900
Se   20.36417000   19.44150000    8.54517000      0.155382   -0.27556400   -0.13629600
Se   21.21042000   20.85829000   15.90476000     -1.436396   -1.66604100   -0.51113000
Se    3.42141000    0.31646000    4.12846000      0.020860    0.05789100   -0.00910300
Se    7.23514000    2.62794000   15.07986000     -0.303232   -0.68911100   -0.34132200
Se    2.26954000    6.58378000    0.48282000     -0.574020    0.02213000   -0.19478000
Se    4.73283000    8.09702000   12.56100000     -0.374078    0.24763700   -0.71242600
Se    1.49346000   13.53807000    1.96711000      0.542759    0.46008600    0.03085300
Se    5.20582000   14.21817000   15.10185000     -1.115801   -0.29513600    0.23257000
Se    5.02197000   17.88743000    2.60727000      0.392825    0.48287600   -0.59544900
Se    4.79023000   17.70917000   12.03842000     -0.012047    0.32588900   -0.10856900
Se   10.51850000    0.89149000    2.71400000      0.448442   -0.62402300   -0.31377600
Se   10.96665000    0.74395000   16.74687000     -0.144830   -0.01758700    1.38244800
Se    9.23092000    6.98471000    2.33506000      1.364816    0.41709300   -0.15636900
Se    7.23833000    8.00368000   15.86365000      0.210671    0.95229000   -0.56071700
Se   10.52613000   10.78705000    3.33316000     -1.154974    1.00707300   -0.76510800
Se    9.52107000   10.35931000   12.64323000      0.855853    0.81719800   -0.77592300
Se    9.64182000   19.84377000    1.97103000      0.797956    0.22001800   -0.42401700
Se   14.95166000   18.40875000   12.46192000      0.018358    0.17631200    0.44798400
Se   14.52089000    3.10003000    5.85979000      0.367642    0.19814000    0.08450700
Se   14.95666000    1.53831000   15.75374000      0.337307   -0.11678500   -0.07199800
Se   15.69465000    5.89492000    4.09437000     -0.553475    0.83299000   -0.98751300
Se   12.67563000    8.27085000   11.04814000      1.393325    1.15310600   -1.17170600
Se   15.52888000   10.84643000    2.35276000      0.512807    0.17159100    0.36677500
Se   17.10843000   14.24570000   16.47321000     -0.343886    0.14449200    0.07541900
Se   15.47878000   15.86785000    3.61218000      1.026187   -0.48601200    0.76611900
Se   14.52276000   21.98992000   12.63783000     -0.635705    0.16151000    0.03686800
Se    0.76858000   21.39326000    6.20343000     -0.248329   -0.13974600   -0.34184000
Se   19.50230000   22.41286000   13.32201000      0.752677    0.22528500   -0.07891300
Se    0.01742000    7.42002000    3.22785000     -0.062148   -0.00974900    0.53494000
Se   19.67860000    8.34241000   14.47703000     -0.043506    0.43647700   -1.46663000
Se    1.57725000   14.06184000    5.99703000     -0.322995   -0.23958600   -0.48391200
Se    0.08273000   15.91623000   14.69268000      0.417116    0.15172500    0.05925600
Se   21.74772000   18.37811000    4.62646000      0.889212    0.47474800   -0.66050100
Se   21.98304000   21.14097000   10.01945000     -0.360448    0.60618400   -0.00364600
Se    3.57786000    4.93506000    3.26091000     -0.183659    0.02064900   -0.02890200
Se    1.66969000    3.79075000   11.98809000      0.911653   -0.12172600   -0.61899400
Se   21.30786000   10.78937000    2.55207000      0.459741    0.22625500   -0.60193100
Se    1.68977000   10.27771000   11.69994000      0.064801    0.12951100    0.51580500
Se   22.19349000   16.03558000   18.73576000      0.598766   -0.63461300    0.41875600
Se    3.05299000   15.58606000   12.96877000      0.775529    0.77594700   -0.34775200
Se    1.99803000   22.05257000    2.42174000     -0.153397   -0.18284700    0.11350900
Se    5.61618000   19.43934000   15.81442000     -0.579184    0.67084600   -1.44572800
Se    9.08551000    4.33727000    4.83734000      0.441562   -0.05447800   -0.29149100
Se    9.75262000    2.50547000   14.35705000     -0.171463    0.68703300   -0.59988700
Se    6.76176000    6.36374000    4.45195000     -0.886445    0.54361000    0.96253700
Se    8.27352000   12.20213000   15.27971000     -0.295521   -0.26193000    0.30487100
Se    5.88671000   14.35810000    2.11128000     -1.454797    0.52576900    0.88521800
Se   10.42616000   14.65386000   11.42838000      0.176205    0.42477000   -0.64805200
Se    6.16820000   20.84224000    5.83765000      2.546358   -0.63921000   -0.24304600
Se    9.37602000   19.85004000   14.45551000      0.144648   -0.00020600    1.37141500
Se   13.73222000    2.50118000    2.39779000     -0.540358   -0.21067300   -0.40697500
Se   11.60479000    5.07432000   11.86114000     -1.070297   -1.42941300   -0.71876800
Se   13.80526000    8.30053000    2.68815000     -0.242672   -0.15853700    0.19513000
Se   11.08748000    9.36591000   14.19628000     -0.407042    0.32550400    0.18217000
Se    8.90940000   14.06846000    4.09432000      0.620735   -0.09167400    0.87051300
Se   14.94952000   14.76228000   10.10075000     -1.250722   -0.59757200    1.09495200
Se   14.90350000   20.09234000    2.25918000     -1.239980   -0.29272900   -0.42907900
Se   13.42766000   20.25021000   13.82018000      0.455525   -0.34657800    0.74519300
Se   18.39057000    5.94409000    0.50871000      0.507183   -0.23205500   -0.20491600
Se   14.89817000    4.39513000   13.95986000      0.557588    0.12661800   -0.50392700
Se   18.47987000    7.80894000    3.82759000     -0.886347   -0.32896000   -0.16785400
Se   21.25275000   14.07563000   11.18406000     -0.648476    0.04890700    0.29026200
Se   20.85719000   14.92870000    3.35474000     -0.343003   -0.31518500   -0.75584600
Se   17.73476000   17.15709000   11.43966000     -0.370479    0.39305200    0.20297600
Se   16.92243000   21.87674000    4.87211000     -0.133226   -0.53468500   -0.53527600
Se   17.30642000    1.57824000   10.54005000     -0.487670    0.09802900   -1.16363800
