384
22.54784000 22.54784000 18.93360000
Ge    4.74022000    5.03650000    9.56171000      1.091829   -0.02921800    1.38277900
Ge    4.50743000    7.29821000    1.07685000      0.060358    0.81675100    1.23310900
Ge    3.95566000   10.98210000    6.88049000     -0.536313    0.39550700   -0.22140300
Ge    6.46069000   10.05127000   17.54298000      0.886324    0.82578200   -0.22477000
Ge    4.59251000   14.29053000   10.49935000     -0.035643    0.59579300    0.07387400
Ge    8.56366000   17.70468000    1.06554000     -0.639109    0.33557000   -0.39410800
Ge    7.31039000   19.64880000    8.34153000      0.201886   -0.55310200   -0.15547200
Ge    5.32419000    0.28385000   17.17710000     -0.294029   -0.06255900    0.18259600
Ge    8.29069000    7.31230000   10.13582000     -0.309310    0.04033500   -0.44330700
Ge   11.51323000    5.13876000   18.45359000      0.171264    0.82950900   -0.00994800
Ge   11.44937000    8.00997000    8.52483000     -0.821402    0.15463500    0.92425400
Ge    9.83303000   12.52593000    0.37864000      0.036068   -0.67784400   -0.48663200
Ge   10.09187000   17.23843000    9.10032000     -0.441368   -0.39129200    0.27962300
Ge   12.23460000   15.32256000    0.19777000     -1.143549    0.55860100    0.03512900
Ge    9.94434000    0.22848000   10.65193000     -1.433278    0.32171900    0.18257400
Ge   15.34498000   21.54745000    0.11983000     -1.240636    0.19494700   -0.04289300
Ge   18.51483000    4.99456000    9.83273000      0.051693   -0.63001100    1.05830200
Ge   18.85576000    8.72510000   17.25095000     -0.766448   -0.24444400   -0.26035900
Ge   18.57314000   14.80670000   10.73239000      0.486261    0.19095200   -0.59964600
Ge   17.43859000   11.46266000   18.05033000     -0.491115    0.49581000   -0.23908400
Ge   13.26926000   15.90849000    8.82498000     -0.390940    0.41523700    0.72135800
Ge   16.67659000   15.21131000    0.05705000      0.793325   -0.89896300    0.18280100
Ge   15.98486000    4.08042000    9.77180000      0.502369    0.05491500   -0.90748900
Ge   18.94461000    3.39451000   18.84945000      0.332994    0.13438100   -0.39277200
Ge    1.09540000    3.81968000    9.39056000     -0.238809    0.89793200    0.91955000
Ge   21.27635000    4.09753000    3.18082000     -0.412527   -0.18142300    0.28290900
Ge    0.19790000   10.06222000    9.09224000      0.447550   -0.26503400   -0.04783000
Ge   21.89307000    9.78267000   17.96874000     -0.089085   -0.72223000    1.27236700
Ge   20.99153000   15.74805000    8.47314000      1.243484   -0.54806800    0.27080100
Ge    3.92741000   15.04674000   17.67833000      0.226761   -0.14890800    1.04836600
Ge   19.14744000   22.46986000   10.91423000      0.237355   -0.72375800   -0.49854500
Ge   22.01552000   20.44491000    2.45522000      0.015322   -0.10977200    1.38189000
Ge    4.27634000    7.18534000    7.57597000      0.377601    0.94875100   -0.46542800
Ge    1.65549000    7.21433000   16.82605000     -0.103015   -0.92459400    0.53636700
Ge   20.36408000    9.27421000    4.09263000      1.208337   -0.15281400    0.44470700
Ge    2.92508000   12.74518000   15.01098000      1.690764    0.16351100    1.81954900
Ge    4.69787000   19.01332000    4.73636000     -0.012435   -0.47024400    0.18547800
Ge    0.77291000   18.26198000   18.57111000      0.425251    0.09395600    0.05548900
Ge    4.09391000   18.87225000    9.92087000     -0.655609    1.28862900    3.02214200
Ge    1.80413000    1.14471000   18.64824000     -0.311515    0.68153900   -0.26885800
Ge    9.84195000    1.50378000    7.62911000     -2.954396    2.55145000    0.12314600
Ge    7.61983000    5.84189000   16.91283000     -0.862096   -0.20888500    0.65674700
Ge    7.83587000   10.35109000    3.92085000     -0.280991    1.07484400   -0.06921400
Ge    9.73136000    8.09529000   16.51928000      0.853282    0.29905200   -0.84217100
Ge    7.25749000   16.22088000    8.29714000     -0.673543    0.02322100    0.13272500
Ge    9.73175000   15.23738000   15.81594000     -0.578081    0.94258300   -0.21338000
Ge   10.22564000   21.00450000    6.42793000      0.466729    0.12069000    0.07281100
Ge   10.48187000   22.46768000   14.39110000      0.096631   -0.49890500   -0.83637400
Ge   12.06146000    7.48796000    4.54275000      0.181624    0.21405100    0.16052800
Ge   15.27287000    4.51063000   16.44773000     -0.216347   -1.07723500   -1.42500000
Ge   14.31545000    9.72544000    6.93037000      0.901307    0.27730900   -0.50583900
Ge   15.30720000   12.38480000   15.00996000      0.339977   -0.64664500    0.20656300
Ge   12.45744000   15.47481000    5.40058000      0.393974   -0.69276700    0.99606400
Ge   14.82124000   18.14848000    0.49927000     -0.083896    0.84796400   -0.17223600
Ge   14.63342000    0.12080000    9.94268000      0.620028    0.16979900   -0.59383100
Ge   17.00671000   21.77750000   13.29222000      0.213785   -0.20711500    1.72434400
Ge   21.02548000    4.79337000    8.81019000      0.160613    0.05312700    0.09785100
Ge   19.75972000    5.79288000   14.11891000      0.022340   -0.19002000    0.09604400
Ge   18.94506000   10.42435000    7.74961000      0.101595    1.21922800    0.25961600
Ge   21.26324000   15.09918000   16.51899000     -0.693913   -0.89387600    0.56521900
Ge   18.99712000   15.98538000    5.40353000      0.399193    0.24176000   -0.61005300
Ge   17.47657000   17.41766000   16.75140000      0.437272    0.32847200   -0.65370900
Ge    0.61221000    1.07553000    7.04668000      0.288452    0.46926500    0.60507300
Ge   18.80036000   20.97752000   17.30766000      0.286831    0.46926300   -0.20021500
Ge    7.54435000    3.26552000    6.48257000     -0.655117   -0.45371000    0.37267100
Ge    3.93103000    2.48860000   12.91699000     -0.651717    1.31919700   -0.01492700
Ge   22.50541000    8.92852000    5.84883000      0.118259    0.56239100   -0.28063400
Ge    2.06139000    7.77846000   11.33273000      0.640071   -0.32879300   -0.11124900
Ge    0.80866000   15.74688000    3.83660000      0.049350   -0.05126300    0.32813400
Ge    2.63642000   17.76149000   15.12034000      0.306385    0.55684800    0.23779700
Ge    4.04819000    0.14080000    9.33007000     -0.113020   -0.39891600    0.17902600
Ge    7.81557000   17.82096000   16.74070000      0.355268    0.12331600    0.53951700
Ge    7.30991000    3.53150000    2.67214000     -0.067833    0.27955800    0.44488500
Ge    9.71414000    3.14145000   17.32236000      0.409568   -0.14851100   -0.22340700
Ge    8.46361000    8.03248000    4.28992000      0.399559    0.17907200    1.00674600
Ge    7.22280000    9.43470000   12.95980000     -0.602810    0.43310400    0.46557600
Ge    6.52080000   14.67068000    5.22073000     -0.891880   -0.00240000   -1.06288000
Ge   11.06480000   11.75191000   15.39139000      0.283597   -0.39838700    0.41250200
Ge    8.02405000   20.47316000    3.76356000     -0.429716   -0.51794900   -0.27252900
Ge    9.24929000   16.84241000   12.82108000      0.514569   -0.01979200   -0.59235900
Ge   11.95798000    1.79206000    5.35932000      0.031650    0.08524300   -0.01753200
Ge   12.55786000    4.30006000   14.02905000     -0.238973   -1.26720900    0.21723500
Ge   17.52267000    4.66127000    5.03650000     -1.163609   -0.93796300   -0.21642300
Ge   13.64571000    8.50760000   14.10479000      0.614812    0.36977800    0.19865500
Ge   14.96066000   13.15948000    3.63281000     -0.237129   -0.21905200   -0.01539300
Ge   13.32894000   16.45861000   12.71885000      0.319787   -0.86621000   -0.77162000
Ge   11.07375000   18.46462000    3.98069000      0.224574    0.14016200   -0.13848700
Ge   11.40719000   19.47221000   16.84887000      0.248920    1.46856600   -1.06232200
Ge   22.19091000    4.79599000    5.91016000      0.237599   -0.15311800   -0.32547400
Ge   22.41330000    2.95191000   13.93311000     -0.365707    0.06319400   -0.45205100
Ge   18.97649000    7.96299000    6.87939000     -0.288378   -0.55733400    0.03874800
Ge   17.80029000   10.30526000   12.85608000     -0.157589   -0.40796100    0.24038200
Ge   20.28827000   16.77588000    1.40601000     -0.413939   -0.38068100   -0.28861200
Ge   18.93289000   15.42432000   14.01128000      0.114445   -0.08270200    0.03475000
Ge   19.08870000   20.88589000    5.11859000      0.953523   -1.09184500    0.72155900
Ge   21.81264000   21.20119000   12.48654000      0.075914    0.07296100    0.92339400
Ge    4.19472000    2.46403000    3.18639000     -0.115521    0.85447000   -0.48907900
Ge    5.95130000    0.85188000   13.14410000      0.513480   -0.63181600   -0.02444400
Ge    3.99425000    7.89450000    4.07125000      0.552066    0.37181500   -0.26406500
Ge    6.76263000    4.99465000   14.67242000      0.419651    0.34603100   -1.00133300
Ge    4.38204000   12.33361000    1.82913000     -1.087708    0.40242900    0.95805700
Ge    4.25901000   10.69522000   12.46921000     -0.022494   -0.20929800    0.17171800
Ge    4.23104000   22.03350000    6.44849000     -1.045245    0.75838600    1.22930000
Ge    6.60278000   19.35295000   12.39536000      0.267948   -0.13301000   -0.00022000
Ge   11.01509000    3.60545000    2.77076000     -0.481390   -0.25438000    0.24898700
Ge    8.64674000    4.48264000   12.69452000     -0.000701    0.10454600   -0.40777400
Ge   11.70021000    8.06750000    1.34231000     -0.100606   -0.41538100   -0.63247800
Ge   11.18999000    7.33020000   12.36620000     -2.134416   -0.73792500    2.14480400
Ge    8.11502000   14.04058000    1.59650000      1.146467   -0.29245900   -0.68810500
Ge    8.33749000   13.19887000   10.55423000     -0.136446    0.30550600    0.33790300
Ge   11.94539000   21.19479000    1.29307000     -0.421801    1.03606100    0.28367700
Ge   11.10046000   19.51094000   12.74882000      0.233555   -0.35570000   -0.40891000
Ge   22.08358000    0.20851000   16.80665000      0.746459    1.11451500    0.49500300
Ge   12.50733000    2.06338000   10.42402000      0.154762    0.49878300    0.58672600
Ge   16.50585000    7.02154000    1.92705000     -0.357501    0.22487900    0.44864200
Ge   15.35004000    7.47901000   10.52486000     -0.191839    0.30604600    0.68464200
Ge   18.21970000   11.72061000    1.70468000     -0.651109    1.35026000    0.61745800
Ge   16.51045000   16.27876000    9.19340000      1.617066    1.09357300   -0.60430400
Ge   17.11120000   20.83586000    2.62989000      0.646933   -0.21398400    1.02638700
Ge   14.11647000   19.77619000   10.24700000     -0.487063    0.21424500    1.12788100
Ge   21.68625000    1.70151000    2.27204000     -0.113151    0.07015600    0.07703700
Ge   21.15139000    1.59748000   10.09311000     -0.122933    0.02713700    0.52087000
Ge    1.12761000    8.75384000    1.50177000     -0.610869   -0.38707000   -0.37885200
Ge   21.64736000    8.83612000   13.10432000     -1.022417    1.04485800    0.18370800
Ge   20.56783000   13.20346000    1.15112000     -0.403180    0.26331100    0.30049300
Ge    0.66588000   14.23025000    9.75362000      0.448760    1.26542500   -0.03241300
Ge    2.10592000   18.79575000    4.48390000     -1.487555    0.04847700    0.70064200
Ge   19.16369000   19.26425000   11.02838000      0.389681   -0.55127000    0.68024200
Se   21.09301000    0.16251000    0.56398000     -0.079785   -0.00387400   -0.37516900
Se    1.22526000    1.39708000    9.50826000      0.677289   -0.51842800   -0.42041800
Se    2.80181000    9.84631000    2.86278000      0.205973    0.03713300    0.57901300
Se   22.17508000    6.76491000   12.11813000      0.301717   -0.67506500   -0.62503000
Se   22.04797000   12.76637000   18.06694000      0.193952   -0.83348500    0.02611900
Se    2.20733000   12.48329000    9.07379000     -0.938408    0.47977700   -0.17043900
Se    2.75235000   16.65268000    5.66190000      0.126913    0.61875900   -0.76697300
Se    1.33486000   16.70031000   11.00485000      0.232896   -0.65164100   -0.56873800
Se    5.26681000    2.69038000    0.95174000      0.257904   -0.28299700    0.24748300
Se    6.14433000    4.34926000   11.63152000      0.152758   -0.80486700    0.17085000
Se    6.89308000    5.97404000    2.13046000     -0.411859    0.26527700   -0.00384800
Se    7.83386000    7.07426000   12.59506000      0.722829   -0.09978400   -0.12226800
Se    7.96429000   10.26134000    1.12949000     -0.262548    0.19411600   -0.71624500
Se    6.18564000   12.74353000   13.71272000      0.780868   -0.45217500    0.05543900
Se    6.16268000   20.09995000    2.05355000     -0.553065   -0.07628800   -0.15016700
Se    8.73552000   18.93714000   10.48229000     -0.121354   -0.24946600    0.32547800
Se   12.29549000    1.37655000    0.53973000      0.577921    0.66100400    0.62196500
Se   12.13801000    1.86017000   13.11990000      0.136474    0.46576800    0.01061800
Se   12.42692000    7.69568000   17.86527000     -0.434044   -0.56349700    0.81303700
Se    9.37133000    9.65792000   10.16558000      0.238451   -0.34420000   -0.05874000
Se   12.93774000   13.55591000    1.76375000     -0.143674   -0.96458800    1.28230500
Se   12.43282000   10.84787000    8.09156000     -0.833179   -0.30302900   -0.10536000
Se   13.75902000   16.57608000    2.27919000     -0.059461    0.64388500    0.04079400
Se   12.25012000   17.87159000   10.36261000     -0.021490   -1.11479000    0.05089400
Se   18.66534000    3.38788000    3.05042000      1.168268    0.24413400    0.11423100
Se   16.33728000    1.78730000   12.71020000     -1.153091   -0.00675300    0.35614300
Se   16.38694000    8.16840000   18.03679000     -0.416364   -0.50642900   -0.38558200
Se   17.62060000    5.53183000   12.53382000     -0.254646   -0.08504800   -0.29250800
Se   18.42729000    9.57072000    0.74564000      0.032663   -1.47943300   -0.12832700
Se   17.68141000   14.23101000    6.90169000     -0.270209   -0.54315500    0.37449300
Se   20.77056000   19.33712000    0.75416000     -0.443128   -0.35055000   -0.85226600
Se   15.70955000   18.74692000    8.94017000      1.062322   -0.60887200   -1.52367200
Se    1.38933000    2.59011000    1.98272000      0.667871   -0.49456000   -0.37464900
Se    5.29052000    7.70056000    9.94774000      0.148493   -0.24849600    0.87327900
Se    5.76954000   10.29979000    2.12111000      0.567048   -0.79790200    0.62646100
Se    4.56608000   11.74718000    9.90300000      0.668868    0.19174900    0.34347300
Se    2.99152000   15.38671000    1.48098000     -0.670472   -0.51351900   -0.64360500
Se    2.12012000   13.41034000   12.99506000     -0.261419    0.04842900   -1.53719700
Se    3.18210000   21.59497000   18.49589000      0.291843   -0.66128900   -0.39670300
Se    5.93555000   20.59340000   10.13404000     -1.104750    0.98302400    0.46867600
Se   12.38809000    5.52334000    1.97035000      0.259397   -0.43171800   -0.41559200
Se    6.32542000    5.34828000    7.73839000      0.817479    0.27910900   -0.54395900
Se   11.51100000   10.58945000    1.26559000      0.909768   -0.11366200   -1.63493100
Se    6.76184000   10.71893000   10.31493000      0.355930    0.04200700    0.51293700
Se    9.93318000   15.88593000    1.93736000      0.589264   -0.85726200    0.13001700
Se   12.94906000   12.75289000   12.78617000      0.509070   -0.04917200    0.09157000
Se   10.20876000   21.47902000   18.31746000     -0.316064   -0.12116900   -0.32259000
Se    8.51009000   22.21453000   12.58067000     -0.313945    0.23507600   -0.64200100
Se   15.57065000    4.53690000   18.70905000     -1.123000    0.83541000    2.45236300
Se   17.22840000    6.68160000    8.80907000     -0.201337    1.08195600   -0.82213900
Se   14.49965000   10.56014000    0.09237000      1.005842    0.59123800   -0.63310700
Se   15.13160000   11.69832000   12.38597000     -0.384390   -0.10007400    0.44615200
Se   17.93340000   14.94408000    2.92664000     -0.145273    0.20232100    0.31016800
Se   16.02312000   11.74194000    9.87751000     -0.227625    0.37356100    0.38392000
Se   17.42719000   22.42432000    0.92858000      0.784219    0.18032100   -0.25313500
Se   14.90538000   21.06306000    7.61336000      0.124727    0.57806200    0.18855000
Se   21.89226000    4.89440000    0.88808000      0.573791   -1.19950700   -0.12949000
Se   20.84130000    3.78965000   11.69030000      0.407481   -0.63725000   -0.46256700
Se   20.70922000    6.79958000    1.12732000     -1.100182    0.95746100    0.52018600
Se   21.14398000   10.29994000   11.04442000     -0.896968    0.15795200    0.50433100
Se   19.27689000   14.77357000   18.38067000     -0.381603   -0.12862100    0.69782000
Se   20.78132000   16.78844000   12.51036000     -0.151765    0.16259300    0.18679900
Se   20.80704000    0.16517000    4.30973000      0.371304    0.39265000   -0.51975700
Se   17.10953000   20.62264000   11.17378000      0.174435    0.26569000   -0.90352900
Se    2.89562000    5.05357000    8.05665000     -0.930033   -0.89874400   -0.05190700
Se   21.93601000    3.52047000   16.99437000     -0.762683   -0.04707100   -1.02075300
Se    2.65260000    9.58034000    8.53809000      0.272064   -0.60128100   -0.13297600
Se    1.49171000    9.62312000   16.91095000      0.541026    1.19904900   -0.20689200
Se    4.88260000   17.63443000    8.29961000      1.130837   -1.82130400   -2.34882300
Se    0.24292000   18.13305000   16.00929000     -0.019137   -0.22654700   -0.75904600
Se    1.10548000   19.37255000   13.10079000      1.039554    0.97865900   -0.09122900
Se    1.23425000   20.70531000   17.16162000      0.324693    0.67812000    0.31239800
Se    5.38271000    3.88740000    4.92785000     -0.219255   -0.57397400   -0.10349700
Se    5.13044000    6.24181000   17.98716000      1.295618   -2.21002100   -0.67295100
Se    5.75903000    9.33298000    5.90836000     -0.736923   -0.90761700    0.03688500
Se    4.29592000    6.94252000   15.86758000     -0.465930    1.33806200   -0.10043600
Se    6.71983000   14.98767000   11.61090000      0.034354   -0.57412500   -1.14993100
Se    6.11796000   16.65147000   18.62865000      0.456172   -0.49423700   -0.76371900
Se    9.99661000   18.29836000    6.45085000      0.073221   -0.23634600   -0.10882900
Se    6.24299000   19.56346000   18.02587000      0.127436    1.05206200    0.90376100
Se   10.03391000    2.71264000   10.14899000     -0.100906   -0.75912000   -0.38004800
Se   12.48576000    3.49042000   16.49087000      0.287913   -0.08495700    0.02934800
Se   13.29326000    7.48311000    7.09687000      0.509633   -0.85379800   -1.10061300
Se   13.89809000   10.26106000   16.17372000     -0.329020    0.63241800   -0.44758700
Se   11.39451000   14.95058000    7.82621000     -0.589962   -0.50005900   -0.53173100
Se   14.37431000   16.20651000   17.99844000     -0.147319   -0.59773200   -1.68803700
Se   11.74079000    0.36083000    7.65504000      3.113237   -0.96624700   -0.70289000
Se   14.65102000   19.83730000   17.29089000      0.583478   -0.35793800    0.03444000
Se   13.72962000    4.59465000   10.33599000      0.014494   -0.04212500    0.16167800
Se   20.20265000    2.41422000   15.36210000      1.111696    0.02399100    0.82488100
Se   18.67337000   10.09332000   10.40195000      1.050944   -0.02815600    0.43904200
Se   17.75837000   10.62547000   15.71310000     -0.357632   -0.11350200    0.06932500
Se   14.34147000   16.42609000    6.84378000      0.735744    0.35636800   -1.46573300
Se   19.97789000   13.15112000   15.05113000     -0.938376    1.16428500   -0.23216200
Se   18.96882000   21.09927000    7.78049000     -0.423213    0.53484200   -0.17820100
Se   18.80176000   18.92366000    2.91126000     -0.381195    0.22416000    0.49062400
Se    5.54945000    1.30463000    7.73942000     -0.109751    0.01642500    0.03226000
Se    3.78348000    2.64893000   17.70590000     -0.024726   -0.05645000   -0.13892100
Se    7.78823000    9.23407000    7.99202000      0.555625    0.11753400    0.14024100
Se    4.44405000    9.46876000   18.68452000     -0.741046    0.21338300    0.36411300
Se    6.43662000   17.25549000    5.61468000      0.731470   -0.34753500    0.48381500
Se    5.18695000   12.61626000   18.58892000      0.398595    0.14778800   -1.77718500
Se    1.88394000   20.10212000   10.36976000      0.040250   -0.49944000   -0.20226700
Se    1.79207000   19.37484000    1.97076000      0.139538   -0.05944600   -0.39876500
Se    8.72313000   21.88843000    8.65356000     -0.118954   -0.09437100   -0.32746200
Se    9.07533000    3.36813000    0.98619000      0.525324    0.37955100   -0.19072100
Se    9.83833000    5.61795000    8.43004000      0.579239   -0.13733100   -0.05302500
Se    9.14235000    6.86376000   18.49027000      0.129152   -0.82699800    0.91011800
Se    9.15182000   12.17838000    5.64029000     -0.589671    0.11468200   -0.78294300
Se    7.72242000   14.94902000   18.04088000      0.211201   -0.41137800   -0.19450700
Se   12.11248000   21.94600000   10.92871000     -0.366442   -0.82389200    0.12212100
Se   11.06702000   13.90300000   17.32711000      0.665628   -1.09935400    0.37790900
Se   15.47179000    0.89057000    7.72654000     -0.139433   -0.18311200   -0.23963200
Se   16.79761000    3.06926000    1.07433000     -0.574633   -0.89687900    0.21889900
Se   15.56529000    4.87965000    7.19805000      0.172669   -0.58280400    0.37063400
Se   15.19908000    6.82774000   16.26904000      0.467589    1.91121800    0.20759600
Se   16.01351000    9.61598000    8.92152000     -0.351883   -0.43840400    0.07454500
Se   14.39328000   13.15622000    0.03094000      0.171585   -0.78539200   -0.71978600
Se   13.47301000   19.04519000    5.40331000     -0.017820   -0.07757200    0.58338600
Se   17.43177000   17.68908000    0.23408000      0.302698    0.36041100    0.34495300
Se   20.97086000    1.95516000    7.46597000     -0.583407   -0.03866000    1.49549300
Se    0.68707000    0.60125000   13.72001000     -0.163497   -0.39148000    0.23303700
Se   20.67409000    7.36305000    9.44770000      0.259899   -0.79198900   -0.42683100
Se   21.25225000    7.42864000   16.76277000      0.601839    0.13174100    1.07862200
Se   21.40844000   10.95982000    7.30900000     -0.364691    0.36766700   -0.59562900
Se   20.09614000   11.34762000   17.15289000      0.109107    0.69018100   -0.11689400
Se   19.22305000   17.25424000    7.89162000     -0.861280    0.26497600   -0.26495600
Se   19.90481000   17.09482000   16.06036000     -0.845014    0.59228500   -0.12027500
Se    3.49159000    0.27205000   12.11902000      0.612496   -0.75977400   -0.69808800
Se    2.87464000    2.24266000   15.25741000     -0.491889   -0.54195400   -0.07057700
Se    0.37426000    7.62202000    8.09044000     -0.801016   -0.35593200    0.52267600
Se    1.08035000    9.78872000   14.15551000      0.215689    0.69931300   -0.08134400
Se    4.00404000   14.25085000    4.60831000      0.664509   -0.17128500    0.83571600
Se    1.92109000   13.77237000   16.94596000     -0.033961   -0.00507400   -0.12011200
Se    0.81985000   16.97832000    8.62036000     -0.668361   -0.57043900    0.23901200
Se    2.83513000   20.60899000   14.34852000     -0.827786   -1.16374600   -0.29185100
Se    6.93736000    1.29304000    3.65040000      0.153716   -1.22375900   -0.99903400
Se    7.78312000    0.29052000    1.43818000     -0.586239   -0.31716300    1.09790000
Se    9.65553000    8.40436000    6.58571000     -0.465443    0.02741100   -0.48516600
Se    4.30203000    4.98156000   14.61943000     -0.204107   -0.41547400   -0.09232500
Se    5.44730000   11.85432000    5.05877000     -0.397033    0.96040900   -0.72509000
Se    9.34914000   13.91561000   13.57007000      0.628358   -0.40299500    0.46310300
Se    8.31304000   17.67645000    3.80133000     -0.483910    0.35609900    0.88454200
Se    7.53182000   16.64917000   14.59183000     -0.757801   -0.06180500   -0.19527000
Se   13.88287000    0.79099000    3.98161000      0.224118   -0.48090200    0.02717500
Se   13.82370000   22.18494000   16.04813000     -0.270539    0.08201900    0.30540800
Se   11.80366000   10.07869000    4.99820000      1.100417   -0.80417100    1.29183300
Se   12.13921000    6.44792000   14.92488000     -0.784258    1.36287600    0.13602700
Se   13.89326000   12.51336000    5.66983000     -0.322114    0.78968100   -0.28489400
Se   14.24324000   14.51998000   14.81159000     -0.659531    0.42721500   -0.45015900
Se   12.16125000   18.98531000    7.57916000     -0.100410    0.35883600   -0.96296800
Se   12.21424000   18.78470000    0.66618000      0.620384   -0.71183500    0.10120700
Se   19.93569000    2.24471000    5.28025000     -0.519419    0.02615600   -0.99732900
Se   17.70141000    0.62164000   16.31694000     -0.029080   -0.13768200    0.03751700
Se   19.54615000    5.37806000    6.16842000      0.098860   -0.11226500    0.31675400
Se   18.88427000    5.91728000   16.58934000     -0.100819   -0.85579000   -0.87215400
Se   19.14518000   11.45522000    4.01842000      0.427378    1.15888200    0.54149800
Se   17.18821000   14.18661000   12.56809000      0.000164   -0.41772200    0.56540500
Se   17.57844000   18.10468000    5.10713000      0.152232    0.52023800   -0.55670000
Se   17.70315000   19.68738000   15.54395000     -0.322301   -0.35760900   -0.17404100
Se    2.52559000    6.94666000    5.79763000     -0.665679    0.13640800   -0.47668500
Se    1.58494000    6.64416000   13.67503000      0.145809    0.10933200   -0.27224500
Se    1.62386000   11.73234000    5.43817000      0.332334   -0.33232700    0.06208200
Se    3.80009000   10.47821000   15.05308000      0.236264    0.22452600    0.00562700
Se    6.14925000   13.81221000    7.52391000     -0.557540    0.59354300    0.94164500
Se    3.48674000   17.59089000   17.75949000     -1.028940    0.37064300   -0.52897700
Se    1.59101000   19.79716000    7.90146000      0.025496   -0.09888000   -0.22340400
Se    6.90953000   21.48251000   15.38395000     -1.030657    0.09321200   -0.37521000
Se    9.22585000    0.49576000    4.71491000      0.377876    0.31565600    0.62746900
Se    7.51032000    1.78837000   17.26048000     -0.536207   -0.23179200    0.96735500
Se   12.84420000   12.22017000    9.83509000     -0.063503    0.45185400    0.58647700
Se    9.83536000   10.35017000   17.41139000      0.194197    1.31608800   -0.14775400
Se    8.43878000   13.44359000    7.89923000      0.666252    0.35943400    0.64809700
Se   11.53406000   17.18290000   14.22627000     -0.341585    0.49604700    0.33938600
Se   12.39183000   20.91213000    4.34729000     -0.905698   -0.70150100    0.35149400
Se   10.67724000   17.57836000   18.03996000     -1.330432   -1.13953600   -0.01249800
Se   11.05747000    4.21081000    6.83311000     -0.094012    0.06964900    0.05091700
Se   17.64778000    3.68935000   16.33992000      0.808148    0.21896700    0.38976400
Se   16.91310000    9.13421000    5.66822000     -0.224247   -0.40956600   -0.65000000
Se   16.38423000    8.19878000   13.01448000      0.008088   -0.16167500   -0.86270200
Se   17.35754000   11.93951000    5.75833000     -0.256520   -0.59688100    0.09230000
Se   15.12930000   17.40779000   15.93802000     -0.585492    0.07826900    0.00882400
Se   16.62409000    2.05393000    4.83003000     -0.373537    1.57445900    0.64768500
Se   18.16258000    3.13802000   13.22346000      1.095985    0.67961100    0.40090500
Se    1.16898000    2.76572000    5.50751000      0.537745    0.32556500   -0.15958200
Se   22.38457000    5.45562000   15.47365000      0.207193   -1.34970700    0.30769700
Se   18.89907000   13.02935000    8.67040000     -0.224737    0.05884600   -0.56276300
Se   21.84042000   12.77792000   13.81164000      0.447775    0.01621100   -0.58348200
Se   21.57394000   14.90101000    6.19207000      0.090404   -0.33419600    0.13772100
Se   20.22885000   18.97838000   13.63576000      0.000228   -0.33638700   -1.26645500
Se   20.35234000   19.43262000    8.49229000      0.468531   -0.26814500   -0.02017600
Se   21.17969000   20.81775000   15.88565000     -0.968127   -1.00058600   -0.06871900
Se    3.44657000    0.31020000    4.12514000     -0.159838    0.05499700   -0.24639700
Se    7.28317000    2.62590000   15.05240000     -0.501649   -1.02456900   -0.24886300
Se    2.29069000    6.51572000    0.54203000     -0.869401    0.21445300   -0.31801300
Se    4.69642000    8.10291000   12.52811000     -0.211632    0.12608900   -0.67469700
Se    1.53492000   13.51194000    1.93391000      0.709929    0.66422600    0.01339000
Se    5.19450000   14.24143000   15.12994000     -1.012942   -0.32862100    0.10518000
Se    5.07461000   17.84429000    2.56255000      0.239849    0.78813100   -0.14561500
Se    4.81917000   17.63686000   12.04606000      0.012462    0.54964700   -0.27072400
Se   10.58763000    0.88358000    2.70979000      0.108557   -0.59392400   -0.16015400
Se   10.89694000    0.74387000   16.75273000      0.135469    0.17777800    1.33194700
Se    9.31511000    7.04466000    2.35454000      1.287019    0.01679800   -0.38508100
Se    7.22787000    8.01099000   15.84916000      0.194148    0.79198600   -0.48333200
Se   10.55071000   10.82228000    3.28254000     -1.483323    1.00370400    0.64677900
Se    9.54176000   10.38856000   12.66349000      0.451535    0.76858600   -0.85972300
Se    9.61998000   19.85042000    1.95084000      0.730322    0.28725200   -0.25199400
Se   14.93634000   18.42477000   12.44927000     -0.033712    0.05380100    0.51365300
Se   14.47087000    3.12064000    5.84058000      0.565142    0.22793300    0.20686600
Se   14.98739000    1.55600000   15.75461000      0.288549   -0.31766800    0.05985500
Se   15.65681000    5.89904000    4.10330000      0.443866    0.19430700   -0.52840700
Se   12.67921000    8.29344000   11.07412000      2.185231    1.52748500   -1.73181600
Se   15.53059000   10.87080000    2.32848000      0.501188    0.21475100    0.35351700
Se   17.08968000   14.21679000   16.45242000     -0.334317    0.15484000    0.23490200
Se   15.48269000   15.87351000    3.64003000      0.845914   -0.41037200    0.51459700
Se   14.51307000   21.96685000   12.61042000     -0.625405    0.15287700    0.12104300
Se    0.74862000   21.44594000    6.21980000     -0.160291   -0.66798600   -0.29922100
Se   19.49924000   22.44551000   13.32976000      0.637968    0.22164900   -0.03118100
Se    0.01021000    7.40776000    3.24529000     -0.127676   -0.02037000    0.45036100
Se   19.61856000    8.31129000   14.46160000      0.024330    0.70255500   -1.55212600
Se    1.52538000   14.09207000    6.02613000     -0.272333   -0.44550600   -0.50701300
Se    0.11081000   15.94316000   14.69384000      0.541976    0.08126600   -0.16103800
Se   21.79027000   18.35736000    4.61691000      0.962935    0.34342400   -0.67063900
Se   21.96696000   21.17156000    9.99554000     -0.234475    0.46653900    0.42183500
Se    3.57974000    4.95847000    3.26196000     -0.154705   -0.06497100    0.01034400
Se    1.69314000    3.73816000   11.99544000      0.815394   -0.07340100   -0.60050800
Se   21.37270000   10.82184000    2.50777000      0.229568    0.03170200   -0.46704400
Se    1.72356000   10.30123000   11.64057000     -0.211487   -0.31891200    0.93369100
Se   22.14467000   16.07699000   18.68810000      0.722082   -0.48205400    0.64705800
Se    3.09399000   15.62484000   13.00186000      0.326892   -0.04279300   -0.43727600
Se    1.97332000   21.94470000    2.39667000     -0.149981   -0.17457500    0.35094300
Se    5.56328000   19.41606000   15.76051000     -0.054791    0.71744200   -0.42398600
Se    9.03040000    4.32504000    4.84676000      0.763472    0.23312800   -0.66061600
Se    9.70770000    2.53058000   14.38268000      0.196572    0.62886000   -0.70813700
Se    6.70274000    6.40157000    4.49144000     -0.808027    0.35253100    0.14040800
Se    8.26932000   12.17309000   15.24673000     -0.421047   -0.29032300    0.51719700
Se    5.88237000   14.35168000    2.12858000     -1.200457    0.66431600    0.69287700
Se   10.38624000   14.61870000   11.45228000      0.377812    0.56553300   -0.91435800
Se    6.14126000   20.88038000    5.84779000      1.298102   -0.61071500   -0.19637200
Se    9.41666000   19.86452000   14.48040000      0.221415   -0.00417000    1.21282200
Se   13.70557000    2.52414000    2.43681000     -0.475568    0.09451700   -0.74875000
Se   11.60737000    5.06780000   11.84878000     -1.003521   -1.10585700   -0.56286200
Se   13.74847000    8.23839000    2.64569000      0.374075    0.07214300    0.42981600
Se   11.08196000    9.33662000   14.18375000     -0.443891    0.30597000    0.30795700
Se    8.90302000   14.08315000    4.04464000      0.802676   -0.31087400    1.27825200
Se   14.98338000   14.77597000   10.00630000     -1.508691   -1.21711400    1.30030500
Se   14.89512000   20.07373000    2.25366000     -0.084685    0.15090800   -0.15630100
Se   13.41254000   20.25277000   13.85038000      0.335337   -0.46631000    0.52814600
Se   18.39986000    5.86069000    0.55496000      0.684378    0.14879100   -0.18473500
Se   14.88569000    4.40082000   13.99953000      0.931515    0.14360900   -0.69311900
Se   18.48659000    7.84964000    3.80991000     -0.944771   -0.52003800   -0.20845900
Se   21.24267000   14.09992000   11.17621000     -0.652828    0.05342800    0.36530500
Se   20.83052000   14.94538000    3.30651000     -0.269335   -0.41994000   -0.74016500
Se   17.75759000   17.16620000   11.47241000     -0.213119    0.47260800    0.05865900
Se   16.96098000   21.94783000    4.91492000     -0.425196   -0.42373000   -0.73848400
Se   17.32288000    1.56321000   10.59032000     -0.662392    0.24751900   -1.37305200
