384
22.54784000 22.54784000 18.93360000
Ge    5.34698000    3.97899000   11.05797000     -0.143187    0.16985800   -0.46976000
Ge    4.68622000    6.89716000    1.86795000      0.022532   -0.57344800   -0.31468900
Ge    4.06193000   11.09700000    7.52923000      0.478543    0.25324800   -0.15643300
Ge    6.65842000    9.83440000   17.77954000      0.350764    0.63154100   -0.55991100
Ge    4.64994000   14.79524000    9.11961000      0.406387    0.53377900    0.36590900
Ge    8.19194000   17.16863000    0.99363000     -0.038835   -0.49889400    0.70473700
Ge    8.40936000   19.38555000    8.31353000     -0.191009   -0.37888000    0.33036700
Ge    5.32513000    0.57025000   18.90450000     -0.732047    0.07261800   -0.21527800
Ge    7.87440000    5.17644000    9.43279000     -1.003659    0.65310800   -0.31965100
Ge   11.60441000    5.72375000   18.24381000     -0.236185   -0.55139800    0.23857900
Ge   11.87809000    7.33778000    8.84141000     -0.128884    0.21670600    0.52800800
Ge   10.50203000   12.30784000    0.08754000      0.835259    1.69186500    1.19867500
Ge    9.94165000   16.68322000    8.97838000      0.540491   -0.68920100   -0.55915100
Ge   12.16094000   16.03446000    0.73817000     -0.095780   -1.34242200    0.27658500
Ge   10.36033000    0.22531000   10.24980000     -0.865654   -1.09425300    0.39005300
Ge   15.66848000   21.42407000    0.36659000      0.404697   -0.20173500   -0.72712300
Ge   17.65813000    5.10893000    9.94365000      1.161055    1.47706800    1.08687600
Ge   18.49277000    7.27004000   18.08789000      0.075659   -0.52395600    0.24454000
Ge   19.01531000   14.75424000   10.96996000     -0.164453    0.10491200    0.05319600
Ge   18.65345000   11.35846000   17.83424000     -1.279818    0.26990400   -0.13571400
Ge   14.01306000   17.13039000    8.90816000      0.047716   -0.17358800   -0.51186800
Ge   16.88785000   14.65830000    0.52919000     -0.585621    0.67109600   -0.01204600
Ge   16.09088000    3.57524000    8.91402000     -1.614509   -1.34666700   -1.05488000
Ge   19.12171000    3.74457000    0.32437000      0.876760   -0.21322000   -0.33974500
Ge    0.84823000    5.34415000   10.38799000      0.367976   -0.76770900    0.31171200
Ge   21.70484000    4.66903000    2.97576000     -1.311320   -0.12572700    0.31440800
Ge    0.73650000   10.26541000    9.40539000      0.541746   -0.11632500   -0.14609900
Ge   21.48265000    9.27422000   18.06506000      0.607893   -0.74073900    0.36343400
Ge   21.46637000   15.40214000    9.00875000     -0.919639   -0.70403700   -0.16260000
Ge    3.88236000   15.48593000   17.65295000     -0.290161   -0.46854900    0.84801800
Ge   18.71572000   22.23438000    9.75972000      0.038660   -0.01268900    0.42566200
Ge   20.53202000   20.66967000    1.08630000      0.442825   -0.05738000   -0.29028100
Ge    2.16494000    6.28016000    8.15636000      0.939562    0.27613600    0.28838300
Ge    1.66170000    6.90838000   16.91215000      0.261347    0.31864900    0.25685200
Ge   20.64567000    8.85359000    5.00122000     -0.365236   -0.06894000    0.14325100
Ge    3.53619000   12.93935000   15.44543000     -0.269433   -0.44208400    0.46952000
Ge    5.30817000   18.71348000    4.87074000     -0.272244   -0.11430100   -0.36936700
Ge    0.52071000   18.21536000   18.12330000     -0.086800    1.00203100   -0.46245700
Ge    4.22142000   19.45103000   10.24055000     -0.722858    0.32610800    1.02476400
Ge    2.67910000    1.53244000   17.10585000     -0.469578    0.30211100    0.37804400
Ge    9.81169000    3.75840000    6.77807000      0.309055    0.07443100   -0.47827400
Ge    6.94239000    6.03684000   16.17316000     -0.394234    0.63124600   -0.18401500
Ge    8.17334000   11.41840000    4.23208000     -0.484776    0.44373500   -0.42139200
Ge    9.84642000    8.46145000   17.37289000     -0.416435   -0.23427700   -0.47425400
Ge    6.39889000   17.45085000    8.11780000      0.687520    0.36549100   -0.11173900
Ge    9.35872000   15.66436000   16.33121000      0.420565    0.29316700    0.03781800
Ge   10.09168000   21.38254000    6.36624000      0.499405    0.97951600   -0.26797900
Ge    9.79563000   20.94908000   14.35820000      0.410873    0.09410700    0.25213300
Ge   12.19788000    6.79020000    4.88191000     -0.119852    0.05521200    0.45791300
Ge   15.20786000    5.37740000   15.55744000      0.053135   -0.82097300    0.55227800
Ge   13.88323000   10.61818000    6.65887000     -0.633395    0.22641100    0.40228800
Ge   14.83780000   11.49867000   15.83931000      0.256795   -0.17747500   -0.27023400
Ge   12.74077000   15.00603000    5.69058000     -0.200562    1.78051300   -0.56189400
Ge   14.79633000   18.21818000   18.85720000     -1.296956    0.40211500   -0.05629800
Ge   13.77113000    0.27433000    9.98632000     -0.766151    0.45918900   -1.94581800
Ge   16.68060000   22.33204000   14.31256000      0.597319   -0.08583600    0.91448400
Ge   20.00335000    5.04697000    8.90730000      0.326283   -0.64437700   -0.48252400
Ge   21.24425000    6.12234000   13.52450000     -0.319575    1.08616400    0.78325100
Ge   17.64923000    9.97679000    7.76147000     -0.381325    0.11987200    0.03853100
Ge   20.85218000   15.51463000   17.22905000     -0.654859    0.49230400   -0.40091600
Ge   19.84339000   14.82064000    5.14786000      0.139419    0.42386500    0.24808000
Ge   17.06040000   18.02141000   16.34739000     -0.189143    0.67962400    0.53350200
Ge    0.54021000    0.25148000    7.46953000      0.427773    0.27668200   -0.32132800
Ge   18.80916000   20.57998000   17.09980000     -1.039705    0.45246100   -0.54090500
Ge    6.61645000    2.26022000    6.91087000     -0.535652   -0.22414700    0.15107100
Ge    3.31823000    3.58153000   13.93080000      0.289273   -0.07183700    0.43879700
Ge    1.70527000    8.50554000    5.77186000     -0.121261    0.38107000   -0.22227800
Ge    4.02537000    8.08261000   11.22148000     -0.200302    0.44628700    0.32089100
Ge    0.85438000   15.61781000    4.58848000      0.341291    0.45496100   -0.51079100
Ge    2.95607000   17.09292000   15.01219000      0.805789    0.61518300   -0.22090000
Ge    2.59852000    0.84319000    9.42939000     -0.333133   -0.10273200   -0.66742300
Ge    6.52682000   18.91727000   16.56271000     -0.438348   -1.20923300    0.58212700
Ge    7.71231000    3.94509000    3.14417000      0.463638    0.14691900    0.72130800
Ge   10.11517000    2.96741000   15.44353000     -0.053372    1.04675400    0.60867800
Ge    8.51982000    8.95225000    4.89251000      0.205916   -0.93638100    0.02407200
Ge    8.29675000   10.41300000   13.05065000     -0.094374   -0.60290700    0.86037800
Ge    6.68689000   14.77853000    3.78281000      1.154973   -0.74748200    1.27649600
Ge   11.44258000   12.48803000   15.37960000      1.147607   -0.15173900    0.65995600
Ge    7.54724000   19.98359000    3.57672000      0.235979   -0.02918900    0.31039100
Ge    9.23390000   16.90880000   13.38232000      0.210604    0.03766900   -0.38466000
Ge   11.86343000    1.62624000    5.21236000      0.613303   -0.49534700    1.26012000
Ge   11.97979000    4.75188000   14.62789000      0.707107   -1.02780200    0.50075700
Ge   17.28914000    6.79069000    5.07368000     -0.305060   -0.19194400   -0.89924900
Ge   13.11424000    8.36044000   14.46710000      0.018027    0.54539100   -1.02846800
Ge   15.10205000   13.01196000    3.86412000     -1.047199    0.29332600   -0.01956300
Ge   13.09594000   15.97350000   13.03810000      0.322062    0.09059300   -0.26724100
Ge   11.98973000   17.51921000    4.43928000     -1.067869   -0.45593200   -0.37340200
Ge   10.86517000   19.12252000   16.71581000     -0.191426    0.68185700    0.30287900
Ge   21.80674000    3.99863000    5.94278000     -0.455583   -0.73858700   -1.10048100
Ge   21.86099000    2.56676000   13.74524000     -0.501309    0.25443700    0.60215600
Ge   18.65179000    7.26576000    7.46140000     -0.079394    0.11449200   -0.20883700
Ge   18.67524000   11.42291000   13.35156000      0.648105   -1.38854500   -0.05901300
Ge   21.10291000   17.05003000    1.56847000      0.330474    0.19127200    0.16807300
Ge   18.55384000   15.46078000   14.34352000      0.079002   -0.90643600    0.20034500
Ge   19.31884000   19.58912000    4.92574000     -0.373211    0.43217300    1.25595400
Ge   22.20986000   20.50340000   13.90682000      0.209314   -0.24093900   -1.33581600
Ge    3.93570000    3.64356000    3.07172000      0.565298    0.16243300   -0.00430800
Ge    5.89993000    1.89878000   12.58383000      0.611912   -0.23906600    0.65644900
Ge    4.68958000    8.39587000    4.43141000     -0.122207   -0.14170000    0.48625000
Ge    7.04142000    5.54851000   13.53364000     -0.407248   -0.87333200    0.80098900
Ge    4.44803000   12.80357000    0.60891000      0.130555   -0.08821100   -0.22147300
Ge    3.80832000   11.65924000   11.85870000      0.028466    0.71690100    0.19987200
Ge    4.81528000   22.32249000    4.95652000     -0.486772   -0.94409200    0.81116100
Ge    6.97589000   19.96850000   12.04869000      0.815093   -0.51033900    0.38394700
Ge   11.46056000    3.55109000    3.37103000     -0.308467    1.30098300   -0.54558100
Ge    8.84714000    3.72531000   11.31057000     -0.708281   -1.31498800    0.25245300
Ge   11.99156000    7.81951000    1.78036000      0.246360    0.01463200    0.32585100
Ge   10.65267000    6.99697000   12.54780000      2.021767    0.33159200    0.20094400
Ge    8.20157000   13.33178000    1.40889000      0.925060    0.00900100   -0.28255300
Ge    8.73469000   14.30374000   11.30853000     -0.695334    0.10408800   -0.58562400
Ge   11.57033000   21.48846000    0.30128000     -0.010473   -0.42591200   -0.39267700
Ge   11.23857000   19.54053000   12.45208000      0.194784    0.06494900   -0.72505300
Ge   22.02667000    0.52855000   16.40197000     -0.118092   -0.05116900    0.49328400
Ge   12.83794000    2.91401000   11.50491000      0.542462    0.29337000   -1.01476800
Ge   16.17533000    8.73478000    1.37056000      0.586457   -0.32479300   -0.22957700
Ge   14.69895000    9.30502000   10.71402000      0.392925   -0.56566900    0.22471100
Ge   18.64775000   11.67420000    2.43964000     -0.495571   -0.27810000    0.87840200
Ge   17.40940000   15.45703000    8.81071000     -1.060377    0.07237700   -0.04799000
Ge   17.31565000   20.27680000    2.91803000     -1.589849    1.95035400    1.09109100
Ge   15.21370000   20.01612000   10.95597000     -0.073801   -0.38857800   -0.30210700
Ge   21.57062000    1.23850000    2.17744000      0.486828   -0.87414000   -0.41849500
Ge   21.15604000    0.89796000   10.73444000      0.757497   -0.43914200   -0.81529300
Ge    0.73724000    8.38483000    1.91024000     -0.281319    0.00893100   -1.01850000
Ge   21.16831000    9.78750000   12.26013000      0.384549    0.28634000    0.34460900
Ge   20.64804000   13.06152000    1.16799000      0.723283    0.15254100    0.09775900
Ge    0.77648000   13.95938000   10.74527000     -0.366758    0.34687500    0.56305800
Ge   22.34870000   19.72469000    4.31842000      0.502671   -0.04736200    0.13935800
Ge   18.51425000   18.62436000   11.10050000     -0.069136   -0.66051700   -0.32700800
Se   20.62960000    0.65255000   18.70354000      0.692894   -0.41389900    0.03324800
Se    1.06792000    2.55314000   11.14042000     -0.224219   -0.23394600   -0.68300100
Se    2.54295000    9.66380000    2.83703000      0.087154   -0.44042700    0.10858000
Se   22.51521000    7.82519000   11.10992000      0.362012   -0.49830300    0.20924000
Se    0.90294000   12.23458000    0.71244000     -1.340101   -0.52504100   -1.34709900
Se    2.20954000   12.82369000    9.06795000     -0.160079   -0.13310700   -0.46040600
Se    2.09476000   18.38955000    4.64643000      0.270667   -0.99632900    0.03759200
Se    1.53259000   16.32551000   10.98636000      0.501935    0.18972900    0.36053200
Se    6.21815000    1.92953000    2.15866000     -0.334646   -0.05644700   -0.42637800
Se    7.29523000    1.56740000   10.64558000     -0.151000    0.46700700   -0.04933800
Se    7.19830000    6.00351000    1.79673000      0.418767    0.67313900    0.48181200
Se    8.38348000    7.04818000   12.06911000      0.026847    1.26955100   -0.45159300
Se    7.72948000   10.66772000    1.03119000     -0.549170   -0.09824400    0.38978000
Se    6.57010000   13.31639000   12.87804000     -0.463011    0.54411500   -0.31339000
Se    4.71794000   20.10042000    2.38974000      0.019136   -0.13811200    0.68232100
Se    9.08474000   18.33196000   10.96035000     -0.313331    0.27002100    0.71699600
Se   14.02395000    0.51504000   18.52939000     -0.315656    0.86232600    0.67893500
Se   11.30580000    1.35295000   14.01889000      0.557398    0.32812800   -0.97082600
Se   12.51110000    8.07280000   18.34055000      0.181309   -0.36436400   -0.32214900
Se    9.30432000    8.83762000    9.46704000     -0.245151   -0.43453600   -0.54595700
Se   13.30245000   13.73982000    2.09317000      0.216335   -0.49849500   -0.31881100
Se   11.86319000   10.31916000    8.58474000      0.632748    0.70462200   -0.10200400
Se   14.31559000   16.58709000    2.23717000     -0.420494    0.36725600   -0.28678600
Se   13.30648000   18.15972000   11.28081000     -0.994132   -0.19973500    0.30434900
Se   19.52184000    2.39301000    2.44702000     -1.272721    1.54466400    0.33044200
Se   15.78020000    2.44680000   12.61458000     -0.020483    0.22664200   -0.32632700
Se   16.33687000    7.82840000   17.32323000     -0.837977    0.46945900   -0.00019400
Se   18.40967000    5.81517000   12.44534000     -0.651633    0.34234400   -0.77374000
Se   18.76883000    9.33941000    0.59017000     -0.082092    0.42204900   -0.08755400
Se   17.29203000   13.69852000    6.39830000      0.228707    0.39230300    0.25979000
Se   20.10031000   18.36344000   18.48216000      0.705343    0.38335900    0.30083400
Se   16.75633000   18.09139000    9.50491000     -0.349423   -0.04337600   -0.26880600
Se    1.71623000    3.23319000    0.94548000      0.485850   -0.24068100    0.57015500
Se    6.02360000    6.55480000   11.14885000     -0.482639   -0.20651100   -0.81371900
Se    5.45401000   10.85519000    2.23177000      0.437732   -0.10311300   -0.67518300
Se    5.44133000   12.58214000    9.97756000      0.130547   -0.21468600   -0.20577500
Se    2.36622000   15.06070000    2.22898000      0.446542    2.25958100    0.06233800
Se    2.41610000   13.48936000   13.33186000     -0.105891    0.58936000   -2.22113400
Se    2.84301000   21.91095000    0.71023000      0.125925    0.89042000   -0.06509000
Se    6.20275000   20.61196000    9.81421000      0.320887    0.94498000   -0.57613200
Se   12.61362000    5.28550000    1.68047000     -0.195911   -0.34568300    0.05901100
Se    5.68731000    4.18768000    8.41453000      0.109785    0.10447400    0.28074600
Se   11.87078000   10.62055000    1.31865000     -0.174835   -0.14552800    0.16715800
Se    7.72199000   11.74216000   11.00882000     -0.197356    0.25563400   -0.74557100
Se    9.99718000   15.73508000    2.11752000      0.018093   -0.10198200   -0.35589200
Se   12.42222000   13.24398000   11.45761000      0.458254   -0.04598800    0.01306900
Se    9.31806000   21.41785000   17.88031000      0.092651   -0.30750200    0.15445800
Se    8.88060000   21.98445000   12.30730000     -0.139464    0.31230000   -0.14972900
Se   15.83792000    4.66210000   18.71464000     -1.235260    0.89061500    0.33354000
Se   16.48182000    7.00015000    8.86376000     -0.074312    0.33232700    0.32294000
Se   15.64328000   10.61777000   18.13152000      0.055826   -0.58810700   -0.32676200
Se   14.74339000   10.58146000   12.88484000      0.497556   -0.11463800    0.22324100
Se   17.23072000   13.74352000    2.91600000      1.467875    1.13010700   -0.14420600
Se   15.19543000   13.22902000   11.05251000     -0.826501   -0.77130300   -0.39976400
Se   18.11887000   21.94447000    1.20489000     -1.287836   -0.51298500    0.01297700
Se   14.68649000   20.95780000    8.69907000      0.767004   -0.51471800   -0.32521900
Se   21.64702000    5.20530000    0.46675000     -0.588730   -0.34282400   -0.50509400
Se   21.43588000    4.25985000   11.97738000     -0.252835   -0.24747500   -1.55542300
Se   20.07440000    6.51952000    1.82309000      0.268759    0.30499700    0.22551000
Se   20.28160000   11.18688000   10.26019000     -0.071497   -0.98722800    0.21289800
Se   19.36456000   15.29478000    0.54993000      0.425795   -0.75474200   -0.38056900
Se   20.64304000   15.80359000   12.80193000      0.242027    0.27997900   -0.09485500
Se   20.49599000   21.87464000    3.50860000      0.374828    0.10743600   -0.37831600
Se   17.53713000   20.78039000   11.62035000      0.412901    0.89517400    0.30419300
Se    2.75130000    3.77888000    8.27258000      0.314542    0.11915700    0.68276400
Se    0.74868000    3.45706000   16.65114000      0.065851   -0.47703400    1.47291800
Se    3.44980000    8.99300000    8.68270000     -0.587752    0.06904500    0.13695800
Se    1.33710000    9.39042000   17.29272000     -0.311564   -0.15987000   -0.19247200
Se    4.07501000   18.09207000    8.42840000     -1.200781   -0.77009800   -1.92406700
Se    0.53388000   17.54153000   15.08391000     -0.606011   -0.33501500    0.34621500
Se    2.28015000   20.68055000   12.53984000     -0.274890    0.25092600    0.21056600
Se    1.59901000   20.62411000   17.42117000      0.031509    0.98345400    1.75920900
Se    5.52809000    3.97071000    5.37047000      0.443681   -0.00484600   -0.60617100
Se    5.59595000    4.72038000    0.54093000     -0.817031   -0.00141700   -0.16202600
Se    6.37125000   10.34418000    6.42508000     -0.602363   -0.80571800    0.09129400
Se    4.15801000    7.53851000   16.77423000      0.506487   -0.43212100   -0.45310600
Se    6.27438000   16.51077000   10.32632000      0.277631   -1.00659500    0.50330500
Se    6.41070000   15.52150000   18.04663000      0.251976    0.66709200   -1.25370300
Se   10.20292000   17.91521000    6.53656000      0.470051    0.16539800    0.12919800
Se    6.11232000   20.80587000    0.30960000      0.009268   -0.44220300   -0.65567700
Se   10.70833000    2.49383000    9.74715000      0.147195    0.34711100   -0.01329500
Se   12.88660000    4.01989000   17.04995000      0.039965    0.35007600   -0.21479500
Se   13.54091000    8.01719000    6.82194000      0.210886   -0.72509200    0.24612800
Se   12.63039000   10.03754000   16.22520000      0.345374    0.56359600    0.16855900
Se   12.49010000   15.32491000    8.03415000     -0.372257    0.06711100    0.84963100
Se   14.52559000   14.44259000   17.06490000     -0.614108   -0.46710500    0.31155300
Se   12.44218000   22.49534000    7.10409000     -0.354510    0.66272900   -0.49484300
Se   15.28732000   20.02486000   17.03972000     -0.240249    0.19684100    0.99059300
Se   13.70780000    4.31715000    9.16871000      0.401722   -0.37937000    0.90700400
Se   20.29525000    2.32614000   15.63044000      0.424785   -0.29553400    0.06592100
Se   18.81247000    9.02968000   10.14387000      0.539003    0.37452500   -0.46902400
Se   17.49757000   10.79265000   15.27074000     -0.359825   -0.10031400    1.64685700
Se   15.65922000   16.46741000    6.90679000      0.713082    0.12734700    0.71836900
Se   19.54746000   13.63538000   16.25944000     -0.271874    0.24299000   -0.41564900
Se   18.64577000   20.38750000    8.11491000     -0.940215    0.18200900   -1.21770900
Se   18.74876000   18.40963000    2.62725000      0.496242   -0.94238700    0.17310000
Se    4.56299000    0.49901000    7.41048000      0.545404    0.37739900   -0.33857600
Se    4.16799000    3.67637000   17.46487000     -0.156640   -0.32096500   -0.51893500
Se    7.48325000    7.56463000    8.55520000     -0.020886    0.50907600    0.42485400
Se    4.80987000    8.62808000   18.83229000     -0.900514   -0.28699900    0.63230800
Se    6.12679000   15.83321000    5.89197000     -0.479761    1.35188800    0.53336800
Se    5.22433000   11.85987000   17.24121000      0.255835   -0.25226200    0.73994900
Se    1.93742000   20.90713000   10.21285000      0.566878   -0.57235100   -0.24447200
Se    0.16539000   19.30315000    1.59426000      0.293531    0.27565100    0.56463200
Se    8.79493000   21.98968000    8.58433000     -0.217291    0.24106800   -0.51288500
Se   10.06333000    3.19556000    1.37500000     -0.425387   -0.17660400   -0.16331100
Se   10.13856000    5.53187000    8.66769000      1.358486   -0.47722700   -0.50006400
Se    8.85846000    5.94954000   17.79375000      0.868833    0.50403200    0.16629100
Se    8.98607000   12.17724000    6.40742000      0.341591    0.84376400   -0.42366700
Se    8.15086000   13.67004000   17.46653000     -0.627966    0.01803100    1.38731400
Se   11.76825000   20.89638000   10.15079000      0.127379   -0.27319000    0.55719600
Se   11.78921000   14.38350000   17.58370000     -0.742050   -0.15767500    0.31805200
Se   15.96469000    1.66348000    7.06856000      0.316840    0.29278900    0.58656800
Se   16.70852000    2.76235000   17.83898000      0.178079   -1.01036200    1.29619400
Se   15.69148000    5.12799000    6.70743000      0.360390    0.57417500    0.81837400
Se   15.42461000    7.55866000   14.54308000      0.483246    0.33920800    0.41117800
Se   15.34471000   10.90897000    8.75364000      0.607150   -0.15352600    0.01102100
Se   14.80831000   12.73185000    0.10560000     -0.457128    0.62248300    0.66744000
Se   13.84505000   18.62553000    5.43497000      0.912822    0.49267900    1.08874300
Se   17.09757000   17.88250000    0.01236000      1.325256   -0.83564400   -0.21119000
Se   20.70448000    0.63456000    7.91266000     -0.044237    0.76614600   -0.02717000
Se    0.28906000    0.44307000   13.18348000      0.784882   -0.86297300    0.22124900
Se   21.05037000    7.40852000    8.51781000     -0.811658    0.57178200    0.91751300
Se   20.08728000    7.84087000   16.20142000      1.236485   -0.55165500    2.45511700
Se   22.32952000   10.05505000    7.20381000      0.173270   -0.46524300   -0.10969000
Se   21.05200000   11.59886000   17.56285000      0.744919    0.00628200   -0.27671000
Se   19.36101000   16.43175000    7.83542000      0.648375    0.37421200   -0.18535000
Se   19.34751000   17.36867000   15.59118000      1.023293   -0.26502300    0.93703800
Se    3.68398000    1.94336000   11.33349000     -0.504876   -0.62381000    0.03717200
Se    2.70890000    0.37962000   14.79729000      0.162681    0.92706300    0.06184700
Se   22.49735000    6.04202000    7.13861000      0.509438    0.63686800   -0.22753700
Se    1.36694000    9.87274000   14.41606000     -0.390406   -0.99680500   -0.33450700
Se    2.58556000   14.82439000    7.47886000     -0.440705   -0.69280900   -0.20461300
Se    1.56229000   14.04255000   16.86180000      0.626486   -0.75747000    0.65399500
Se    0.02072000   17.46116000    9.31667000      0.338822    0.23715600   -0.09651000
Se    1.78343000   19.82946000   15.34423000      0.390252   -0.34862700   -1.52124000
Se    6.88200000    0.08965000    3.59896000     -0.066615    0.76837200    0.11388300
Se    8.39607000   21.75880000    1.47229000     -0.356478    0.35187800   -0.86999400
Se   10.30182000    8.80614000    6.68924000     -0.324718    0.00931300   -0.48167900
Se    4.54876000    5.94163000   14.23640000      0.011322   -0.07030300    0.66262800
Se    5.73283000   12.62097000    4.61478000     -0.093682   -0.15452600   -0.12040800
Se    9.86135000   13.97346000   14.22070000      0.270131    1.14656700   -0.98434400
Se    7.19827000   17.57757000    3.36539000     -0.049123   -0.01326000    0.91269800
Se    7.19796000   16.41422000   14.71648000      0.645358    0.68985800    0.06395300
Se   13.33307000    0.16115000    3.78259000     -0.207715   -0.37233300    0.49650100
Se   13.50352000   22.42264000   16.25484000      0.721734    0.13686600   -0.05389800
Se   11.28172000    9.91584000    4.45224000      0.816271   -0.83263600    0.87948800
Se   11.05792000    6.94209000   15.15212000     -0.511432    0.56094500    0.16526800
Se   12.72488000   12.80249000    5.24100000      0.122882   -1.40110000    0.41743600
Se   13.67213000   13.19366000   14.09795000     -0.936682    0.47605400   -0.39044300
Se   12.33530000   19.46087000    7.19200000      0.129394   -0.77816500    0.03788100
Se   11.82714000   18.41143000    0.18165000      0.877736    0.70573400   -0.17110800
Se   21.27943000    1.54959000    5.35304000      0.224663   -0.30505600    0.35930800
Se   17.98444000    0.48643000   16.68262000     -0.310855   -1.04418800   -0.83317000
Se   19.37168000    4.95438000    6.19597000      0.330426   -0.13045900    0.85724000
Se   18.42856000    5.37954000   15.66188000      0.287713    0.56796300    0.06137300
Se   19.65984000   11.53397000    5.10809000      0.079365    0.15090200   -1.07835500
Se   17.47214000   12.97507000   12.09019000      0.274112    1.10854700   -0.52792600
Se   18.07679000   17.41208000    4.78971000     -0.246349   -0.12790600   -0.11042900
Se   17.73570000   19.94292000   14.50304000     -0.186222    0.08159000    0.86029300
Se    3.40693000    6.24767000    5.95758000     -0.054764    0.91303100   -0.68783900
Se    1.31558000    7.49428000   13.48826000     -0.182785    0.87948400    0.16545400
Se    2.66958000   11.18970000    5.38554000      0.157783   -0.55175100    0.40790200
Se    4.38690000   10.90198000   14.05952000      0.993220   -0.82659900    0.47764900
Se    6.08592000   13.74907000    7.00849000     -0.299419   -0.68572300    0.46942900
Se    3.61332000   17.84318000   17.92127000     -0.552685   -0.08874400   -0.33489500
Se    0.95607000   19.71715000    7.13943000     -0.740672   -1.01585000    0.42260100
Se    4.85815000    0.03347000   16.00641000     -0.022441   -0.65676400   -0.55781300
Se    9.50505000    1.33939000    5.23840000     -0.278659   -0.15925700   -0.02024700
Se    8.22790000    2.97255000   17.87096000     -0.129839   -0.06914900    0.37300200
Se   11.13209000   12.52191000    8.99714000      0.134988   -0.16208500   -0.15484200
Se    9.46552000   11.32119000   17.23184000     -0.487968   -0.97112300   -1.42539300
Se    8.73316000   14.46133000    8.59204000      0.140240    0.60850100    0.70262200
Se   11.44532000   17.64619000   14.74527000     -0.374639   -0.70851700   -0.58309700
Se   11.65264000   20.17874000    3.74151000     -0.438668   -0.63994900   -0.13052700
Se    8.84378000   17.97608000   17.70123000      0.135703    0.57458100   -1.12722000
Se   12.36952000    3.66689000    6.56102000     -0.580181   -0.06933600   -0.42698800
Se   17.36747000    3.33677000   15.67297000     -0.119424   -0.30770600   -1.68285300
Se   15.96156000    8.70250000    5.85787000      0.041462    0.19989200    0.22258900
Se   16.81956000    9.22098000   12.47015000     -0.656693    0.38208700   -0.69265200
Se   16.38277000   11.65201000    5.73133000      0.347283   -0.14314600    0.14321000
Se   15.05271000   16.86568000   15.43964000     -0.011535    0.33980400   -0.37868900
Se   17.11625000    2.84694000    3.14517000     -0.475253   -0.28237900    0.45753100
Se   18.14652000    3.28925000   12.30449000     -0.216980    0.27649300    0.08832800
Se    1.45843000    2.76018000    6.68978000     -0.788443   -0.43258400   -0.41764600
Se    0.93952000    4.45723000   14.59617000      0.302467   -0.05050100   -0.40356800
Se   19.28014000   12.57317000    8.39375000     -0.840151    0.46575500   -0.00846200
Se   21.08243000   11.73426000   14.17048000      0.321053    0.16101900   -0.19981700
Se   21.13151000   13.41179000    7.15094000      0.629120   -0.08850400   -0.16486000
Se   20.15148000   18.28001000   12.78806000      0.973314    0.25621400    0.32904400
Se   20.39308000   19.08963000    8.94599000      0.154293    0.13055200    1.10685500
Se   20.95504000   20.76598000   15.92206000     -0.149493    0.42482500    0.60175100
Se    3.23035000    1.52698000    4.24188000     -0.145052    0.19996600    0.42197900
Se    6.54448000    3.18366000   16.29162000     -0.803402    0.12294000    0.19280900
Se    1.75890000    6.27973000    0.48355000      0.172269    0.33399900    0.42128000
Se    5.91168000    9.11688000   12.78385000     -0.978056    0.33595100   -0.06270000
Se    2.02988000   12.89909000    2.51882000      0.487442   -1.46392200    1.27405300
Se    4.68553000   15.07689000   15.32862000      0.331228   -0.04244800    0.03662300
Se    3.65836000   17.95751000    2.50476000     -0.296020    0.31878600    0.85963300
Se    4.49359000   18.22995000   12.41345000      0.311490    0.51060700   -0.00969900
Se   10.28620000    0.60795000    1.66180000      0.882398    1.14146400    1.17909000
Se   10.12772000    0.59874000   16.14796000      0.440176   -1.06420900    0.11248400
Se    9.79934000    7.41454000    2.70630000     -0.424702    0.25140700    0.15636600
Se    7.48957000    8.80144000   15.56987000      0.066580   -0.35527300    0.86717000
Se   10.72832000   11.84667000    3.21286000      0.079620    0.65187600   -0.88757000
Se   10.35248000   11.41508000   11.56714000      0.510007   -0.22036600   -0.03494000
Se   10.28965000   19.51956000    1.92907000     -0.082282    0.06904600   -0.37053900
Se   14.92655000   18.67893000   13.79440000     -0.370505   -0.02956700    0.29252700
Se   15.65361000    3.27009000    5.32249000     -0.525363   -0.76524200   -0.43700600
Se   13.93888000    1.87769000   14.89946000     -0.391567   -0.41185100    0.41064000
Se   15.17049000    6.00442000    3.41211000      0.126625   -0.09022500    0.05712500
Se   13.19332000    7.26040000   11.64889000     -0.881143    0.40681100   -0.35112400
Se   16.04969000   10.94329000    2.47074000      0.141019   -0.04862700   -0.03379600
Se   16.86350000   14.60234000   16.83992000      1.254360    0.01861100   -0.60060700
Se   14.97056000   15.73043000    4.45907000      0.168638   -0.16427400    0.61798500
Se   14.12557000   22.50351000   12.31163000      0.937401   -0.05439800    1.07320300
Se    2.02517000   20.98063000    5.58612000      0.193692    1.49147400   -1.04315500
Se   19.62825000    1.22642000   12.58022000     -0.412560   -0.53722100    0.42675800
Se   22.35796000    7.19771000    3.87633000      0.390568    0.21959000    0.46366300
Se   19.95055000    8.64520000   14.12676000     -0.680323    0.51421400   -2.64167800
Se    1.29171000   13.38901000    5.78233000      0.120405    0.42455900    0.22202600
Se    0.20549000   14.89286000   15.27160000     -0.901427    0.13925500   -0.69299400
Se   21.59631000   16.72341000    5.71544000     -0.212780    0.06589600   -0.05099200
Se   21.00639000   20.81513000   10.97292000      0.075310    0.37856000   -0.33708500
Se    1.48331000    4.54598000    3.50156000      1.269325   -0.31278400    0.11786700
Se    3.05093000    5.16899000   12.00171000     -0.562978    0.66617100   -0.95827900
Se   21.81094000   10.85862000    4.14333000     -0.539544    0.16388700   -0.27681800
Se    1.56884000   10.76453000   11.98466000     -1.351607   -0.81146400    0.18707900
Se    0.27051000   15.91527000   18.86458000     -0.067329   -1.24977900    0.80211400
Se    3.65282000   15.63919000   12.53268000     -0.670763   -0.28644800    0.18237500
Se    1.66523000    1.08408000    2.33303000      0.386523   -0.52038000   -0.99786300
Se    4.63923000   20.36392000   14.51671000      0.795250    0.19477900    0.33313100
Se    9.58897000    5.47824000    4.52543000      0.350340   -1.43876600    0.44999000
Se    8.01540000    2.73708000   14.25789000     -0.035784    0.10753200   -1.48673300
Se    6.64691000    7.43287000    5.75084000      0.273352    0.07624900   -0.20093100
Se    7.87134000   12.84571000   14.74781000     -0.829210   -1.16193600   -0.47049700
Se    6.16537000   15.19197000    1.45000000     -0.601583   -0.52135200   -0.27737900
Se   11.09642000   15.37432000   11.27237000      0.704211    0.18931000    0.31105400
Se    7.55845000   20.35083000    6.13726000     -1.002554    0.16204200   -0.86418400
Se    7.43712000   20.45646000   15.06088000      0.335809    0.83377900   -0.73263800
Se   14.87315000    1.29175000    2.59571000      0.592910    0.92889200   -1.02263300
Se   11.01873000    4.59700000   12.11300000      0.121733    0.38267500    0.29528700
Se   13.95941000    8.05674000    3.40505000     -0.001104    0.59977600   -0.12835300
Se   10.95946000   10.55368000   13.83636000     -0.090627   -0.44490700   -0.26251100
Se    9.39380000   14.19098000    4.92546000     -0.450829   -0.62885200    0.01488300
Se   15.08832000   15.48470000   11.05279000     -0.562564    1.16239800    0.04320500
Se   14.86047000   20.07937000    2.29419000      0.244078   -0.36770200   -0.64569100
Se   13.20825000   20.99812000   13.79420000     -0.394192   -1.11761000    0.28253300
Se   17.65482000    5.56962000    1.21518000      0.000322    0.15910600   -0.12177100
Se   14.44928000    4.71320000   13.16021000     -0.085199   -0.35034200    0.17808000
Se   18.35355000    8.47736000    3.36195000      0.050948   -0.53606400    0.37533100
Se   21.13705000   13.26055000   12.27841000      0.418104    0.01698300    0.00860200
Se   21.55465000   14.27452000    3.31385000     -0.009038    0.02396500   -0.21975900
Se   17.26568000   16.61221000   12.53898000     -0.272984    0.11902700   -0.73171400
Se   16.88273000   21.09973000    5.56163000      1.092257   -0.86446400   -1.88065000
Se   16.23844000    1.16347000   10.08951000      0.498548    0.27093100   -0.10817000
