384
22.54784000 22.54784000 18.93360000
Ge    5.08874000    5.15414000    9.69026000     -0.115494    0.11459100   -0.47886300
Ge    4.44714000    7.43128000    1.06401000      0.020272    0.03502100    0.21103100
Ge    3.52490000   11.14986000    6.97628000      0.771292    0.34198700    0.37930400
Ge    6.52673000   10.13242000   17.34134000     -0.005244    0.84045800    0.51558200
Ge    4.59896000   14.34123000   10.74254000     -1.205624    0.24660900   -0.18199500
Ge    8.52277000   17.71706000    0.95460000      0.223574   -0.17149100    0.52562600
Ge    7.35832000   19.35024000    8.27441000     -0.637776    0.29377500   -0.71607000
Ge    5.12056000    0.41741000   17.10016000     -0.079363    0.77866500   -0.61851900
Ge    8.09554000    7.42410000   10.21724000     -0.155958    0.51054600   -0.22907700
Ge   11.44304000    5.46528000   18.67429000     -0.407511   -1.20268500    0.02555000
Ge   11.56016000    8.25682000    8.69690000      0.489593    0.22543800    0.34240800
Ge    9.77586000   12.40014000    0.28188000      0.261333   -0.59133500   -0.30685600
Ge   10.16455000   17.25949000    9.18846000      0.279436   -0.80204400   -0.00180000
Ge   12.19100000   15.23707000    0.05384000     -0.716002    0.56505400    0.71479600
Ge    9.85711000    0.23798000   10.69250000      0.912799    0.43735500   -1.36423400
Ge   15.07702000   21.82621000    0.38768000     -0.022400    0.16915200    0.10513000
Ge   18.62299000    4.88848000    9.74627000     -0.278304    0.13739900    0.21691500
Ge   18.84236000    8.90209000   17.26487000     -0.753993   -0.63922000   -0.00130900
Ge   18.68261000   14.85388000   10.79074000     -0.500789    0.15624100   -0.33010500
Ge   17.35176000   11.81851000   18.12792000      0.001614    0.15316600   -1.08994200
Ge   13.13764000   15.87045000    8.77386000      0.391632    0.08345900   -0.48572600
Ge   16.58501000   15.36168000    0.11254000      0.625790   -0.77240000    0.44020300
Ge   16.21722000    4.02415000    9.75438000     -0.648882   -0.38367600   -0.02918800
Ge   19.16960000    3.35092000    0.13880000     -0.242191   -0.85364900   -0.71533400
Ge    1.05568000    3.90566000    9.61996000      0.716709   -0.18071000   -0.46899200
Ge   20.96135000    4.11351000    3.47609000      2.287761    0.01228100    0.09142800
Ge    0.26426000   10.18744000    9.10706000      0.499308   -0.19483900    0.15959600
Ge   22.00908000    9.82664000   18.24947000     -0.230375   -0.37604100    0.29304100
Ge   21.06691000   15.59440000    8.45113000     -0.312725   -0.03894000   -0.19861000
Ge    4.02520000   14.92801000   17.47387000      0.555237   -0.12250900    1.95524900
Ge   19.32443000   22.50428000   10.89643000     -0.031809   -0.25966100   -0.38410700
Ge   22.05194000   20.49759000    2.53147000     -1.061033    0.09137900    0.57155100
Ge    4.24013000    7.38875000    7.45926000     -0.336432    0.04324700   -0.49167700
Ge    1.65104000    7.28758000   17.16418000     -0.247136    0.07467400    0.04833300
Ge   20.66881000    9.27956000    3.90926000     -0.405102    0.27187700   -0.48216300
Ge    3.18713000   12.97522000   15.04329000     -1.862715   -0.63558600   -0.45287400
Ge    4.49994000   18.69105000    4.76952000      0.922452    0.55705800   -0.25308600
Ge    0.95334000   18.53311000   18.64062000     -0.626233   -0.21589900   -0.16733100
Ge    4.01233000   18.80369000   10.19112000      0.318432   -0.94523900   -0.01168800
Ge    1.84679000    1.09829000   18.87484000      0.151193   -0.27694200   -1.99572000
Ge    9.55230000    1.89632000    7.80547000      1.037129   -0.89456500   -0.98043200
Ge    7.46771000    5.79292000   17.07228000      1.108594    0.01264500   -0.44408600
Ge    7.82844000   10.41694000    3.91992000     -0.390623   -0.75712300   -0.40975500
Ge    9.71608000    7.87796000   16.44143000      0.380387    0.68280400    0.12051200
Ge    7.05064000   16.10807000    8.21109000      0.794240   -0.81001000    0.82004200
Ge    9.30468000   15.42826000   15.82166000      0.565372   -0.43991700   -0.27409400
Ge   10.16769000   20.93677000    6.69415000      0.863136    1.10096100   -0.53988600
Ge   10.48726000   22.49585000   14.35292000      0.146312   -0.22094700   -0.38294800
Ge   11.89596000    7.49383000    4.55158000      0.232762   -0.61183600   -0.03420900
Ge   15.25545000    4.35749000   16.42491000      0.108090   -0.01888200    0.93246100
Ge   14.53163000    9.49521000    6.65127000     -0.638428    0.11725600    0.50498000
Ge   15.41678000   12.24108000   14.93900000      0.322586    1.01250000    1.57156000
Ge   12.44112000   15.37010000    5.60117000     -0.716770   -1.21773300   -0.48064200
Ge   14.62351000   18.27492000    0.34416000     -0.234790   -0.11081300    0.27825400
Ge   14.67034000    0.00211000    9.90490000      0.494232    0.79857200   -0.99724900
Ge   16.92065000   21.52229000   13.44800000      0.077076    0.35206300    0.48720300
Ge   21.23469000    5.07256000    8.93753000      0.086201   -1.91031400   -0.44776700
Ge   19.88672000    5.78264000   14.33775000      0.017685   -0.45804500   -2.16616200
Ge   19.02752000   10.61784000    7.73602000      0.175866    0.09146400    0.15196600
Ge   21.40227000   14.91612000   16.51321000     -0.554112    0.10723700   -0.08223000
Ge   18.80008000   16.29029000    5.33838000      0.731245   -0.58659800    0.18187000
Ge   17.49603000   17.17334000   16.68243000     -0.556809   -0.37180800    0.32328000
Ge    0.38819000    1.27743000    6.81663000      0.002866   -0.00946900   -0.08475200
Ge   18.93407000   21.03339000   17.46870000     -0.140232   -0.11292400   -0.58843600
Ge    7.64967000    3.04318000    6.36319000     -1.307231    0.05779800    0.04624400
Ge    3.86584000    2.69479000   12.87420000      1.275575   -0.70290600    0.17458300
Ge   22.43181000    8.97956000    5.67386000      0.744321    0.23611200    0.92385200
Ge    2.09961000    7.60221000   11.31490000     -0.236219    0.03137000    0.31460400
Ge    0.75218000   15.68400000    4.04845000     -0.032167    0.21259300   -0.32349200
Ge    2.75730000   17.64250000   15.43356000      0.359452    0.30320200   -0.52652500
Ge    3.99338000   22.45858000    9.78474000      0.079418   -0.04757800   -0.66758700
Ge    8.13787000   17.71386000   16.61001000     -1.054066    1.04493700   -0.22613800
Ge    7.24777000    3.63156000    2.73098000     -0.484871   -0.12639600    0.67178900
Ge    9.63395000    3.20382000   17.54938000      0.192938    0.16049700   -1.20478000
Ge    8.33040000    7.94102000    4.22903000     -0.204456    0.63835000    0.02821400
Ge    7.02887000    9.40671000   13.35297000      0.171234    0.66443800   -0.04649600
Ge    6.43379000   14.85564000    5.06153000      0.036312   -0.69556200   -0.40994200
Ge   11.14041000   11.78213000   15.34375000      0.449784   -0.01279700    0.17131400
Ge    7.88961000   20.55159000    3.67674000     -0.116301   -0.18660000    0.20640000
Ge    9.19199000   17.03592000   12.67962000      0.397303   -0.61582500    0.16426900
Ge   12.09462000    1.75130000    5.37522000     -0.070366   -0.32345400    0.51097600
Ge   12.55131000    4.18855000   14.06477000      0.155346    0.54824100    0.60233800
Ge   17.68768000    4.32061000    5.06886000     -1.272328    1.26539300    0.58007900
Ge   13.79175000    8.83953000   14.35143000      0.059320   -0.67363800   -0.29191500
Ge   14.80302000   13.29405000    3.53865000      0.419836   -0.37599800    0.71588500
Ge   13.29265000   16.21580000   12.44253000      0.149284    0.07980600    0.49208400
Ge   10.85787000   18.51170000    4.02977000      0.277223    0.10556900   -0.78303600
Ge   11.79258000   19.59854000   16.68840000     -0.797562    0.20419900   -0.03311600
Ge   22.15944000    5.04769000    5.88853000      0.171171   -0.14986700   -0.40877300
Ge   22.39671000    3.09606000   13.79311000     -0.569337    0.62910300   -0.61609200
Ge   18.83402000    8.01822000    7.02660000      1.009734   -0.03303200   -0.28880900
Ge   18.06440000   10.21615000   13.08942000     -0.978235   -0.19117800   -0.04188200
Ge   20.00268000   16.84946000    1.37346000     -0.124269    0.19644600   -0.82146000
Ge   19.15259000   15.59390000   14.07324000     -0.325709   -0.05442100   -0.31218900
Ge   19.25621000   20.96968000    4.93395000     -0.482346   -1.37497400    1.49512200
Ge   21.78762000   21.30005000   12.82865000     -0.177723   -0.27692900   -0.28486500
Ge    3.93451000    2.61193000    3.15064000      0.074840   -0.27974200   -0.19939200
Ge    6.07110000    0.60901000   13.20337000     -0.437537   -0.37870500    0.01158400
Ge    3.75373000    7.97858000    3.96691000      1.278790   -1.34595100    1.17318700
Ge    6.88182000    4.83275000   14.57370000     -0.212340    0.51518700   -0.16871500
Ge    4.24023000   12.50264000    2.11974000      0.243611   -1.02078300   -0.63046500
Ge    4.15771000   10.62860000   12.27300000      0.093668    0.74902300    0.37546900
Ge    3.67598000   22.43562000    6.59714000      1.069515   -0.25441600    0.04391600
Ge    6.86988000   19.24722000   12.32401000      0.211711   -0.20165400    0.99028300
Ge   10.83469000    3.43999000    2.62214000     -0.210663    0.18652100    0.18565800
Ge    8.88734000    4.54613000   12.63498000     -0.256398    0.11294400   -0.24364400
Ge   11.76563000    8.10278000    1.22668000      0.453082    0.99529900    0.16978000
Ge   10.95827000    7.39418000   12.32853000      0.625779    0.11562400   -0.39918900
Ge    8.31507000   14.03215000    1.60890000     -0.593660    0.02909400    0.00581200
Ge    8.24702000   12.81127000   10.72168000     -0.222437    0.31047600    0.32316200
Ge   11.99637000   21.35013000    1.35540000     -0.142183   -0.55707800   -0.21269400
Ge   11.08731000   19.15200000   12.54745000      0.138211    0.58115900    0.94246000
Ge   22.13945000    0.52032000   16.55723000     -0.063412   -0.71885900   -0.25105100
Ge   12.50849000    2.02660000   10.21268000      0.649872    0.12026300    0.29456700
Ge   16.28918000    6.75756000    2.08735000      0.116529    0.42479900   -1.07306500
Ge   15.52716000    7.15081000   10.87323000     -0.967254    0.33719300   -0.70167700
Ge   18.17688000   11.73904000    1.68313000     -0.390265   -0.48271300   -0.02120800
Ge   16.69543000   16.70135000    9.35562000      0.243025   -0.79023900    0.45834500
Ge   17.40738000   21.17455000    2.66950000     -0.712841   -0.61805600   -0.11678200
Ge   14.32993000   19.99342000   10.59432000      0.392529   -1.00513100   -0.36104300
Ge   21.79489000    1.67591000    2.34990000     -0.928201   -0.02005600   -0.41649600
Ge   21.22710000    1.67058000   10.07985000      0.446535   -0.50652900    0.91816900
Ge    0.86939000    8.81622000    1.53627000     -0.213528   -0.33099100    0.30844700
Ge   21.47044000    8.82857000   13.12237000      0.620455    0.21449200    0.15002100
Ge   20.30940000   13.31922000    1.04312000      0.359043   -0.56382200   -0.31058700
Ge    0.63605000   14.47753000    9.53610000      0.048067   -1.49743500   -0.32200100
Ge    1.89678000   18.65888000    4.57997000      0.356159    1.48158500   -0.07977400
Ge   19.44497000   19.39624000   10.93693000     -0.256552   -0.52969100    0.43784100
Se   21.03674000    0.01826000    0.52589000      0.805296    0.85745400    0.33411100
Se    1.27369000    1.24921000    8.99849000      0.888595    0.71278900    1.27689500
Se    2.67923000    9.72722000    3.00381000     -0.809492    1.78137200   -0.75363700
Se   22.15635000    6.49742000   12.35322000      0.100001    0.73699600   -0.24817500
Se   21.97190000   12.59890000   17.85738000      0.417311    0.30549200    0.83509700
Se    2.24417000   12.59730000    9.03705000     -0.455880    0.22698300   -0.42419000
Se    2.98328000   16.74198000    5.43641000     -0.180606   -0.81265000    0.26656400
Se    1.35301000   16.33395000   10.77909000      1.110710    0.89488600    1.57925100
Se    5.16200000    2.46209000    1.02511000     -0.012427    0.03370600   -0.08387500
Se    6.08021000    4.57468000   12.00165000      0.391659   -0.57451400   -0.74976100
Se    6.83991000    5.94896000    2.10077000     -0.467271    0.76284100    0.17110400
Se    7.95646000    7.24079000   12.72532000      0.488137   -0.25106200   -0.49863300
Se    8.04519000   10.15042000    0.72122000     -0.974238    0.16367900   -0.42998800
Se    6.20819000   12.43674000   14.07382000      0.102844   -0.49072600   -0.39179800
Se    6.12069000   20.05879000    1.80944000     -0.632066    0.02456600    0.33928400
Se    8.69808000   18.83928000   10.43093000      0.306971   -0.20887300    0.74102000
Se   12.15383000    1.55210000    0.56752000      0.499573    0.77189800    0.52907600
Se   12.44515000    1.95500000   13.19984000     -0.427028   -0.66505600   -0.41552400
Se   12.33630000    7.57860000   17.97475000      0.739444    0.47960800   -0.90956600
Se    9.58569000    9.87224000   10.31962000     -0.108002   -0.99030800   -0.30389100
Se   12.97856000   13.55727000    1.91792000     -0.073453   -0.82337500   -0.87240300
Se   12.55334000   10.77358000    7.99992000     -0.188927    0.02068500    0.38354900
Se   13.68475000   16.41570000    2.32901000      0.797409    0.86988400    0.49481000
Se   12.46306000   17.77672000   10.48023000     -0.569648   -0.50438500   -0.57404300
Se   18.77047000    3.53767000    3.04131000     -0.530830   -0.62939400   -0.74020300
Se   16.18151000    1.77520000   12.91613000      0.724422   -0.35885200   -0.27885500
Se   16.35622000    7.85578000   18.03529000      0.804060    0.89058600    0.86682500
Se   17.62397000    5.23345000   12.71452000      0.064168    0.34584700   -0.49943600
Se   18.33376000    9.31736000    0.81386000      0.170178    0.37262900    0.16146100
Se   17.58224000   14.30161000    7.11032000     -0.970838    0.53170000   -1.26653300
Se   20.89029000   19.36507000    0.72008000      0.211353   -0.04942200   -0.27675300
Se   15.75453000   18.81781000    8.63372000      0.003425    0.26396300   -0.00365800
Se    1.54113000    2.32017000    1.91283000      0.268357    0.69039800    0.44623700
Se    5.17844000    7.90675000   10.02701000      1.302973   -0.85687900   -0.40429300
Se    6.02343000   10.35705000    2.19791000      0.537303   -0.06652400    0.08079800
Se    4.67417000   11.89348000    9.94402000     -0.363261    0.19987900    0.12398800
Se    3.00231000   15.45570000    1.42360000     -0.173390    0.41633200   -0.64621000
Se    2.07041000   13.15884000   12.71679000      0.975872    0.59035000    0.83504200
Se    3.56677000   21.79409000   18.51545000     -0.400782   -0.83887700    0.38679200
Se    5.98422000   20.24039000   10.24842000     -1.144970    1.84045700   -0.54964100
Se   12.61023000    5.39370000    2.14316000     -0.457688   -0.30085000   -0.32088700
Se    6.38155000    5.40589000    7.51966000      0.428200   -0.08183300    0.38264900
Se   11.54352000   10.52285000    1.13002000      0.354003    1.10607600    0.46805300
Se    6.64844000   10.68251000   10.24329000      1.110326   -0.04482800    0.23772900
Se   10.12581000   15.69125000    1.92692000     -0.226966    0.46709200   -0.01061600
Se   12.97657000   12.69494000   12.85784000     -0.946699    0.80650000    0.53459500
Se   10.28659000   21.56288000   18.10923000     -0.094026   -1.73440300    0.88036100
Se    8.40842000   22.25933000   12.33011000     -0.629568   -0.57553800    1.31825400
Se   15.15567000    4.73586000    0.10037000     -0.002642   -0.23984500    0.24871700
Se   17.42085000    6.84535000    8.58010000     -0.987519   -0.47806500    0.72722500
Se   14.69620000   10.54450000   18.82199000      0.885030    0.37961300    0.06080100
Se   15.09620000   11.87159000   12.60115000      0.699392   -1.02038600   -0.96306700
Se   18.08801000   15.19645000    3.00447000     -0.517023   -0.16279300    0.03555900
Se   16.20842000   11.54267000    9.96635000     -0.406260    0.15572000   -0.16726200
Se   17.90789000   22.53672000    0.77463000     -0.850693   -0.08374700    0.06744400
Se   15.00953000   21.01307000    7.66235000     -0.036665    1.13704600   -0.44116400
Se   22.03306000    4.60832000    0.91959000     -0.737996    0.68400500    0.95693000
Se   20.82252000    4.01008000   11.51257000      0.322760   -0.91490800   -0.12808000
Se   20.82743000    6.83948000    0.92747000     -0.390056   -1.35462300    0.10356500
Se   21.03827000   10.52756000   11.30966000      2.364458    0.52722900    0.90720400
Se   19.18698000   14.77793000   18.33290000      0.011403   -0.04022700   -0.04272400
Se   20.83016000   16.85980000   12.44874000      0.000291    0.03031700    0.26771200
Se   20.95087000    0.03227000    4.38821000      1.314020    0.16981100   -1.14862100
Se   17.16697000   20.55330000   11.13054000      0.358014    0.69547900   -0.41154000
Se    2.85655000    5.13261000    8.20478000      0.313654   -0.43959900    0.81705800
Se   21.82773000    3.58893000   16.95301000     -0.617418   -1.41156500    0.92210300
Se    2.74581000    9.32680000    8.44651000     -0.083013   -0.25676100   -0.20021300
Se    1.48639000    9.98186000   16.82729000      0.419187   -0.37693000    0.15385900
Se    5.14083000   17.58488000    8.09619000     -1.528748    0.84119800    0.74088300
Se    0.30934000   17.99195000   15.82582000     -0.427758    0.90500100    0.08406500
Se    1.19554000   19.25157000   13.05369000     -1.587420   -0.92877600   -1.43298500
Se    1.28972000   20.59165000   17.06651000     -0.268184    0.37508400    0.22442700
Se    5.27589000    3.74796000    4.90824000      0.207621   -0.01027900   -0.02098400
Se    5.24166000    6.10918000   17.80470000     -1.089388   -0.33684200    0.80336400
Se    5.74990000    9.42352000    5.66239000     -0.786018   -0.58330400    0.25312200
Se    4.15135000    6.94305000   15.83662000     -0.190308    0.06209400   -0.08205100
Se    6.73731000   14.76290000   11.48785000      1.224868   -0.20039100    0.03345800
Se    6.21975000   16.79058000   18.54078000      0.063105    0.52425600   -0.47531800
Se    9.94184000   18.31111000    6.42327000     -1.384395   -0.77026900   -0.57054600
Se    6.01501000   19.84290000   18.29400000      0.224415   -0.01074200   -0.53199600
Se   10.05023000    2.73565000   10.02076000     -0.417014    0.03129700    1.12296700
Se   12.35286000    3.61988000   16.58915000      0.653590    0.27497600    0.13893200
Se   13.27914000    7.19981000    6.74841000      0.118117    0.60146000    0.27841000
Se   13.78096000   10.61462000   16.13435000     -0.361510    0.30086800    0.29653000
Se   11.08589000   14.87508000    7.83578000      0.736737    0.15644200    0.00526200
Se   14.32894000   15.87254000   17.85242000      0.348740    1.03986000   -1.24185600
Se   11.95788000    0.48459000    7.83220000     -0.313988    0.84628300   -1.16365700
Se   14.60446000   20.09776000   17.48926000      0.091377    0.15587600    0.07871400
Se   13.71782000    4.60332000   10.39401000      0.351066   -0.50921400   -0.03685800
Se   20.21753000    2.23208000   15.46883000      0.759189   -0.32118300    0.40555800
Se   18.97235000   10.07407000   10.75058000     -2.265936   -0.53581800   -1.67205500
Se   17.86365000   10.86851000   15.64262000     -1.084801   -0.26186500    0.46194900
Se   14.28278000   16.49526000    6.56227000      0.692029   -0.05974700    1.22949000
Se   19.99115000   13.34756000   14.84137000      0.000292    0.31475400    0.04658500
Se   19.03783000   21.25045000    7.74029000      0.099971   -0.47934100   -0.27774900
Se   18.86333000   18.76256000    3.15875000      0.647242    0.68251500   -1.42573700
Se    5.51948000    1.22822000    7.80070000     -0.466233   -0.21132700    0.43718400
Se    3.88620000    2.79528000   17.60204000     -0.545267   -0.59046600    0.67265000
Se    7.99264000    9.64242000    7.66377000     -0.296803    0.15367200    0.57105900
Se    4.29362000    9.67743000   18.61120000      0.205947    0.00936600    0.04944200
Se    6.66204000   17.31366000    5.98276000      0.029572    0.42408500   -0.84679200
Se    4.97018000   12.37485000   18.53842000     -0.157379    0.45608900   -0.21694900
Se    1.74616000   19.72194000   10.47815000     -0.311058    0.82309400    0.24208700
Se    2.17342000   19.26759000    1.87406000      0.640422   -1.98045600   -0.41769700
Se    8.85339000   21.89353000    8.65594000     -1.075192    0.16278500   -0.02609100
Se    8.83032000    3.31396000    0.84237000      0.293668    0.35784500    1.11708900
Se    9.84772000    5.55507000    8.40832000     -0.387606    0.83840400    1.02434600
Se    8.98365000    7.02135000   18.73204000     -0.481577   -0.67934900   -0.39972600
Se    8.78064000   11.98740000    5.46836000      0.122033    0.51111700    0.20807400
Se    7.65445000   15.00286000   18.02500000      0.452828   -1.05135700   -0.46697500
Se   12.03542000   21.75550000   10.80317000     -0.807533   -0.06468200    0.14300300
Se   11.07845000   13.80685000   17.33586000     -0.486425   -0.35145700   -0.32232000
Se   15.67281000    0.86519000    7.64372000     -0.240072   -0.71056000    0.43839000
Se   16.65264000    3.21137000    1.10124000     -0.261601   -0.02234000   -0.52529500
Se   15.63090000    4.70763000    7.34059000      0.206347   -0.00412300   -0.01902000
Se   15.13058000    6.92531000   16.43334000     -0.598003   -0.20551700   -1.52184500
Se   15.99969000    9.42643000    9.12314000     -0.283293   -0.07113400   -0.20420500
Se   14.54617000   13.05166000   18.82046000     -0.647709   -0.17796900    0.21351000
Se   13.44301000   18.97146000    5.50561000     -0.056553    0.07043000   -0.28222900
Se   17.52820000   17.70553000    0.20412000     -0.579507    0.48044600   -0.09729200
Se   20.69987000    1.85948000    7.70791000     -0.065133    0.41048700    0.08087800
Se    0.53394000    0.81826000   13.68720000      0.399590   -1.18662100    0.64386500
Se   20.57506000    7.25408000    9.31165000     -0.520658    1.78779600    0.59095500
Se   21.49600000    7.55966000   16.64344000      0.324824    0.37058500    0.60564100
Se   21.48794000   11.04699000    7.22600000     -0.711394    0.37181000   -0.55428000
Se   20.10615000   11.20358000   17.14343000      0.140399    0.79674500   -0.22906400
Se   19.09057000   17.27659000    7.98700000     -0.254705   -0.16463700   -0.06309300
Se   19.94037000   17.18750000   16.16063000      0.037292   -0.83659300   -0.43179000
Se    3.60994000    0.08842000   12.38691000      0.473831    0.13417200   -0.45080100
Se    2.93403000    2.08195000   15.22841000     -0.218220   -0.23507200    0.08653500
Se    0.11387000    7.56577000    8.17616000      0.321454    0.31751300   -0.36740400
Se    0.88694000    9.92699000   14.37658000      0.206056    0.01083300   -0.58270300
Se    4.00614000   14.09316000    4.45663000     -0.277121    0.43150100    0.91507400
Se    1.92826000   13.90644000   16.96450000     -0.454237   -0.55543500   -0.79175500
Se    0.75961000   16.95883000    8.60794000     -0.594698    0.40201400   -1.35069000
Se    2.59599000   20.38734000   14.22812000      1.643372    1.19337700    1.49680100
Se    6.88279000    1.22820000    3.45537000      0.585284   -1.11253200   -0.76552700
Se    7.63255000    0.26786000    1.34496000     -0.177127   -0.15497500    1.21385400
Se    9.37557000    8.26685000    6.41201000      0.753781   -0.61719500    0.18152100
Se    4.32450000    4.54608000   14.66423000     -0.090468    0.54726500    0.71189500
Se    5.32482000   12.11469000    4.80916000     -0.464911   -0.15418600    0.43926300
Se    9.54866000   13.79790000   13.61283000      0.405474   -0.13249100    0.40747400
Se    8.07873000   17.52408000    3.96335000      0.967741    0.78072600   -0.48427600
Se    7.28633000   16.74954000   14.37212000      0.407478   -0.07835500   -0.03664400
Se   13.90002000    0.71964000    3.77784000      0.336126   -0.05000300    0.48300200
Se   13.75678000   22.28067000   15.86385000     -0.063422    0.22993300    0.44743700
Se   12.03601000    9.87650000    4.95270000     -0.341175    1.04121400    0.16661600
Se   11.98286000    6.52439000   15.19464000     -0.237341    0.21647400   -1.08604500
Se   13.99172000   12.58035000    5.69530000     -0.118344    0.71994600   -0.53646100
Se   14.03018000   14.41786000   14.92021000     -0.328058   -0.37703500   -0.57043700
Se   11.92468000   18.87336000    7.45681000      1.105422    0.48242300    0.87403700
Se   12.01014000   18.65962000    1.00578000      0.881968   -0.42382300   -0.24962700
Se   19.93924000    1.87917000    5.38523000     -0.828806    1.23405000   -0.60407400
Se   17.94538000    0.65523000   16.26026000     -0.147954   -0.17802800    0.21603300
Se   19.48353000    5.46981000    6.28418000      0.446741   -0.45280000   -0.06874300
Se   19.04866000    5.96871000   16.48329000     -1.239364   -0.27304000    1.71972100
Se   19.18789000   11.69183000    3.95026000      0.221722   -0.15442000    0.94354200
Se   17.22124000   14.28741000   12.65982000      0.365538   -0.00531700    0.36312700
Se   17.51576000   18.34592000    4.93844000     -1.492355    0.07646500    1.17013600
Se   17.63681000   19.34527000   15.76358000     -0.227379    1.53941200   -0.41606500
Se    2.33612000    6.77251000    5.83275000      0.159625    0.49779300   -0.50063200
Se    1.58700000    6.44778000   13.68548000      0.718848    0.76096800   -0.48700600
Se    1.84832000   11.74277000    5.33573000     -1.145833    0.03785500   -0.73355600
Se    3.83853000   10.65636000   14.95681000      0.037203   -0.30586400    0.28785900
Se    6.00971000   13.79229000    7.54945000      0.027347    0.50171400    0.26005800
Se    3.14680000   17.41891000   17.82951000      0.140537    0.26771100    0.18829500
Se    1.70921000   19.73648000    8.03228000     -0.180920    0.29326100   -1.06076400
Se    6.71958000   21.24976000   15.15649000     -0.094201    0.59911000   -0.33265000
Se    9.34496000    0.55090000    4.95441000     -0.008625   -0.07019400   -0.20371000
Se    7.41453000    1.85897000   17.33533000     -0.223487    0.16600400    0.33992600
Se   12.89384000   12.15913000    9.90181000      0.237286   -0.31862100   -0.39732000
Se    9.82381000   10.32527000   17.66626000      0.503640   -0.17843400   -1.73070400
Se    8.26041000   13.50815000    8.33619000      0.441011   -0.21535400   -0.56288000
Se   11.58214000   17.32681000   14.31742000      0.086200   -0.56051400   -0.59330100
Se   12.50102000   20.94607000    4.55869000     -0.956204   -0.36100100   -0.08006600
Se   10.30303000   17.68206000   17.94283000      0.674096   -0.00096500   -0.16597400
Se   10.83762000    4.40233000    6.78213000      0.792421   -0.75224800   -0.70336700
Se   17.95255000    3.76534000   16.48213000     -0.459265    0.26695000    0.55269100
Se   16.95839000    8.92631000    5.53444000     -0.184870   -0.17925700   -0.78266500
Se   16.50351000    7.96798000   12.86776000     -0.056462    0.74107700    0.53699500
Se   17.44145000   11.56761000    5.61344000      0.274290   -0.03568400   -0.04013400
Se   15.10438000   17.44068000   15.82487000      0.153705   -0.34772800    0.18525200
Se   16.59613000    2.12250000    4.94879000     -1.035130    0.48573900   -0.01446500
Se   18.36529000    3.01615000   13.20317000     -0.248529   -0.20780400    0.00540000
Se    1.28373000    2.81854000    5.31183000     -0.488557    0.51721200    0.27441300
Se   22.25527000    5.23457000   15.49290000      1.450966    0.65022800   -0.36442800
Se   18.82051000   13.02528000    8.49035000      0.776899    0.04926600    1.09134500
Se   22.16994000   12.90585000   13.74211000     -0.172892    0.31347700   -0.14721600
Se   21.58988000   14.85686000    5.99302000     -0.954596    0.16348700    0.15525200
Se   20.19677000   19.08028000   13.49240000      0.128827   -0.47520400   -0.71335800
Se   20.38488000   19.37590000    8.23478000     -0.100033    0.56122900    0.15723700
Se   20.96954000   20.59033000   15.84985000      0.823526    1.08413100    0.53837700
Se    3.56417000    0.32225000    4.05196000      0.318916    0.40213100    0.14385800
Se    7.34697000    2.39347000   14.91419000     -0.915393   -0.49426400    0.59691400
Se    2.25516000    6.23438000    0.77403000      0.284422    0.64312000   -0.21531900
Se    4.49868000    8.11187000   12.28652000      0.357757   -0.63920800    0.78067600
Se    1.85481000   13.50263000    1.77841000     -0.399769    0.00348200    0.15859000
Se    5.03952000   14.32357000   15.25427000      1.575957    0.79074400   -0.39779300
Se    5.34646000   17.79275000    2.37407000     -0.544498    0.50254100    0.62927200
Se    4.95645000   17.38546000   12.03416000     -0.001961    0.47367100    0.07821500
Se   10.86931000    0.76363000    2.67348000     -1.346870    0.11631200    0.19448400
Se   10.64218000    0.87050000   16.86835000      0.995022    0.74609100   -0.80095900
Se    9.91808000    7.29125000    2.41276000     -1.054619   -0.91505300    0.96264500
Se    7.20278000    8.13623000   15.72651000      0.172698   -0.06144400    0.24037700
Se   10.46964000   11.12211000    3.30098000      0.706413   -0.65213700    0.26945300
Se    9.65163000   10.65215000   12.61796000     -0.493075    0.22410800   -0.24305900
Se    9.60864000   19.93080000    1.84730000      0.088955    0.17628800    0.43184900
Se   14.85302000   18.47053000   12.50055000      0.143354   -0.80795100    0.90608400
Se   14.33528000    3.25680000    5.79985000      0.487066    0.04577600    0.22757900
Se   15.19413000    1.55145000   15.77124000      0.320751   -0.43898100    0.09715800
Se   15.59227000    5.89684000    4.11486000      0.410494   -0.84302200    1.09065600
Se   12.99592000    8.56611000   10.98230000     -0.196058   -0.87609000   -0.04128700
Se   15.63148000   11.03244000    2.27637000      0.379412    0.10375100    0.32874500
Se   16.95531000   14.08987000   16.41136000     -0.130470   -0.32800400    0.44389500
Se   15.57287000   15.82452000    3.80085000     -0.489637   -0.46016900   -0.67249300
Se   14.39099000   21.88850000   12.54346000      0.207204    0.19931100    0.84939700
Se    0.64069000   21.52506000    6.25416000     -0.017764   -0.58268000    0.08866000
Se   19.56815000    0.07870000   13.35143000     -0.041849   -0.36640500   -0.43219000
Se   22.48490000    7.34428000    3.39849000     -0.279700   -0.10463300    0.04428400
Se   19.33808000    8.33004000   14.14616000      0.540424    0.24006300   -0.09168500
Se    1.26067000   14.12333000    6.10697000      0.929389   -0.93195200    0.17299700
Se    0.33267000   16.02151000   14.64386000     -0.020272   -1.42882000   -0.37283800
Se   22.18081000   18.30247000    4.46805000     -0.989123   -0.17202000   -0.17999600
Se   21.85060000   21.38092000   10.02586000     -0.234257   -0.07855100    1.29056400
Se    3.55627000    5.05413000    3.27294000     -0.393375   -0.09799700   -0.09800500
Se    1.90652000    3.49604000   11.92557000     -1.022771    0.67201000   -0.35937600
Se   21.71234000   10.95500000    2.25172000     -0.113228   -0.65095100    0.30533500
Se    1.80639000   10.30838000   11.53366000     -0.857946   -0.93081700    0.80268200
Se   22.03553000   16.22917000   18.59149000      0.586196    0.13169600    0.55029700
Se    3.30964000   15.77555000   13.06717000     -0.402741   -0.17984000   -0.93949500
Se    1.80467000   21.43484000    2.34520000     -0.250303    1.43153000    0.22583700
Se    5.34774000   19.41974000   15.50792000      0.079355   -0.06318900    0.47636400
Se    8.93577000    4.34272000    4.68634000      0.509901    0.14440900   -0.70578000
Se    9.61706000    2.73624000   14.36892000      0.967029   -0.12776500   -0.47128000
Se    6.30407000    6.63106000    4.63222000      0.076352   -0.15330200   -0.69816000
Se    8.16612000   11.97708000   15.20085000      0.078215   -0.23322800    0.99424100
Se    5.77302000   14.44891000    2.27767000      0.747417    0.72429800   -0.29791600
Se   10.27329000   14.58210000   11.39246000      0.169841    0.85534700   -0.15827800
Se    6.05907000   20.98286000    5.87899000     -0.574843   -0.28688700    0.08886900
Se    9.67060000   19.95231000   14.77699000      0.213042    0.21071100    0.24710300
Se   13.51782000    2.69564000    2.45960000      0.370693   -0.12372700   -0.46798100
Se   11.48641000    4.92630000   11.72142000     -0.115015    0.48930800    0.24074800
Se   13.69508000    7.96499000    2.59450000      0.739353    0.30855200    0.53756600
Se   10.98423000    9.23243000   14.17388000     -0.083953    0.19931000    0.17224200
Se    9.00648000   14.08495000    4.05950000      0.394230   -0.37060500    0.67720200
Se   14.95259000   14.66259000    9.73266000     -0.125982    0.15786200    0.37356300
Se   14.93263000   20.03996000    2.20611000      0.912932    0.32941900    0.13337300
Se   13.37203000   20.17617000   14.04548000     -0.072831   -0.29881600   -0.28261800
Se   18.57558000    5.56815000    0.77970000      0.259329    1.52751000    0.16837300
Se   14.98340000    4.46575000   14.03404000     -0.144635    0.42772300   -0.88471300
Se   18.39718000    7.98470000    3.69124000      0.249644    0.18528600   -0.04219900
Se   21.10263000   14.22020000   11.22508000      0.038421   -0.10270800    0.62191400
Se   20.66601000   14.94691000    2.96301000      0.444700   -0.43591500    0.13777200
Se   17.84748000   17.28847000   11.60669000     -0.010438    0.01228600   -0.53453400
Se   17.07823000   22.22230000    4.98202000      0.147732   -0.98135300   -0.78559500
Se   17.24550000    1.54731000   10.61499000     -1.201974    0.39471300   -0.31296900
