384
22.54784000 22.54784000 18.93360000
Ge    5.16462000    5.18083000    9.72022000     -0.310164    0.25064600   -0.65803500
Ge    4.44187000    7.47490000    1.08374000     -0.072137   -0.11399300    0.10631400
Ge    3.45550000   11.20563000    6.99296000      1.024061    0.11801500    0.74079300
Ge    6.55300000   10.18258000   17.31299000     -0.279642    0.67646000    0.54188000
Ge    4.55617000   14.36418000   10.78188000     -0.709935    0.21435600   -0.06554500
Ge    8.51615000   17.71904000    0.94535000      0.340919   -0.29231300    0.57803400
Ge    7.35642000   19.29155000    8.22305000     -0.850554    0.41881300   -0.45869800
Ge    5.06929000    0.46163000   17.07376000      0.072656    1.04846600   -0.88305900
Ge    8.04885000    7.46618000   10.22360000     -0.054014    0.45830100   -0.22975900
Ge   11.42676000    5.51428000   18.71595000     -0.760133   -1.82681100   -0.00017500
Ge   11.58885000    8.31469000    8.74883000      0.606644    0.12390700    0.27480900
Ge    9.77254000   12.34636000    0.24524000      0.240841   -0.30259400   -0.14975000
Ge   10.18549000   17.23482000    9.21084000      0.234169   -0.75335900    0.01664600
Ge   12.13953000   15.24438000    0.04795000     -0.263232    0.53919200    0.70915200
Ge    9.86928000    0.26734000   10.63517000      0.316911    0.07739700   -0.46539600
Ge   15.00830000   21.89405000    0.44586000      0.067822   -0.05890900    0.03053700
Ge   18.63744000    4.85983000    9.74768000     -0.274820    0.34015100    0.12470500
Ge   18.80883000    8.91637000   17.26417000     -0.505414   -0.65322300   -0.01728900
Ge   18.69933000   14.87241000   10.78110000     -0.707363    0.04397900   -0.17823000
Ge   17.32709000   11.89582000   18.10539000      0.041517    0.20577400   -1.05902000
Ge   13.11499000   15.87238000    8.75369000      0.571933   -0.04617300   -0.58489700
Ge   16.59900000   15.34837000    0.14018000      0.428898   -0.41637200    0.27354300
Ge   16.24781000    4.00350000    9.73651000     -0.781821   -0.41892800    0.29691400
Ge   19.21200000    3.31586000    0.15814000     -0.371569   -0.64640100   -0.62853600
Ge    1.06839000    3.92805000    9.66748000      0.719852   -0.26264800   -0.90534100
Ge   20.95238000    4.11254000    3.53201000      2.426480    0.03036600    0.11545200
Ge    0.31215000   10.19331000    9.13533000      0.283260    0.01313800   -0.16828800
Ge   22.01128000    9.81368000   18.34189000     -0.124370   -0.25754800   -0.28490000
Ge   21.09029000   15.55477000    8.44432000     -0.701319   -0.03839000   -0.28744900
Ge    4.07431000   14.90504000   17.50335000      0.171433   -0.28443800    1.87590800
Ge   19.36537000   22.49411000   10.87598000     -0.172098   -0.16160000   -0.33653700
Ge   22.04437000   20.51814000    2.59270000     -1.454507   -0.05822500    0.17052500
Ge    4.22749000    7.44282000    7.41884000     -0.272989   -0.27047500   -0.48056800
Ge    1.63802000    7.28988000   17.23950000     -0.082698    0.28124400   -0.15669400
Ge   20.73370000    9.29111000    3.86078000     -0.653807    0.27491800   -0.48527800
Ge    3.21255000   13.01466000   15.05489000     -2.233998   -0.86883300   -0.59197100
Ge    4.50099000   18.63936000    4.77023000      0.773350    0.73608100   -0.31180100
Ge    0.97916000   18.57652000   18.64726000     -0.945784   -0.16937100   -0.03717800
Ge    4.00028000   18.76750000   10.27532000      0.053093   -0.86327000   -0.47335200
Ge    1.85248000    1.09479000   18.85811000      0.306063   -0.48662800   -2.06515900
Ge    9.50517000    1.97013000    7.81616000      1.098438   -0.98547400   -1.29456400
Ge    7.45194000    5.78349000   17.10063000      1.633690   -0.10312400   -0.66430500
Ge    7.81315000   10.42806000    3.91494000     -0.288574   -1.36527500   -0.66576200
Ge    9.74048000    7.87038000   16.41045000      0.211296    0.50036300    0.38082300
Ge    7.02415000   16.06662000    8.21818000      0.915930   -0.99073700    0.98821300
Ge    9.23098000   15.46451000   15.81677000      0.657135   -0.79611700   -0.40451200
Ge   10.18608000   20.96709000    6.73507000      0.866310    0.91752400   -0.59464600
Ge   10.49637000   22.48890000   14.32280000      0.091931   -0.07242500   -0.24535200
Ge   11.86922000    7.47529000    4.55537000      0.281020   -0.39254900   -0.05158300
Ge   15.26016000    4.30521000   16.44317000     -0.106115    0.25829800    0.53525000
Ge   14.56930000    9.45810000    6.60591000     -0.871622   -0.03760200    0.58058900
Ge   15.45187000   12.23272000   14.97369000      0.206679    1.19666400    1.29523500
Ge   12.41029000   15.30128000    5.63432000     -0.297687   -0.90306100   -0.39223400
Ge   14.57376000   18.30973000    0.31747000     -0.166254   -0.22874500    0.33471800
Ge   14.70060000    0.00740000    9.85327000      0.312447    0.75918400   -0.66472600
Ge   16.90817000   21.48204000   13.52653000      0.081871    0.34612700   -0.11560000
Ge   21.27802000    5.07476000    8.95172000      0.029382   -1.63491700   -0.55821400
Ge   19.91467000    5.75687000   14.30603000     -0.289557   -0.28672900   -1.33330500
Ge   19.04958000   10.68232000    7.74463000      0.151177   -0.56111600    0.00103500
Ge   21.39938000   14.87238000   16.51806000     -0.334291    0.28094400   -0.15238000
Ge   18.79322000   16.32977000    5.32388000      0.613441   -0.41830500    0.38286400
Ge   17.48625000   17.11996000   16.66479000     -0.591546   -0.09896000    0.50761500
Ge    0.35529000    1.33670000    6.77023000     -0.255707   -0.52566900    0.20714000
Ge   18.95998000   21.04481000   17.47528000     -0.301000   -0.21975400   -0.50641600
Ge    7.61642000    2.98194000    6.36204000     -1.259095    0.43744800   -0.23953500
Ge    3.87505000    2.72975000   12.86744000      1.613455   -0.90247300    0.38600200
Ge   22.44085000    9.00077000    5.66203000      0.752904    0.27853800    1.17369800
Ge    2.10628000    7.56815000   11.32278000     -0.371052    0.07562100    0.18478500
Ge    0.73882000   15.67881000    4.08459000      0.074834    0.06777600   -0.43851200
Ge    2.80157000   17.63150000   15.48673000     -0.007999    0.40724500   -0.92731000
Ge    3.98677000   22.41078000    9.85294000      0.089980   -0.14218700   -0.72957100
Ge    8.17520000   17.72435000   16.58439000     -1.459975    1.28071500   -0.40082100
Ge    7.21603000    3.65415000    2.76984000     -0.548064   -0.25067000    0.64966000
Ge    9.62911000    3.21938000   17.55907000      0.034962    0.26327400   -1.25338500
Ge    8.29847000    7.94652000    4.23943000     -0.278876    0.54462600   -0.35868100
Ge    6.98929000    9.43848000   13.43984000      0.443990    0.30905300   -0.21050100
Ge    6.40454000   14.86711000    5.00537000      0.275649   -0.63466700   -0.28499500
Ge   11.16878000   11.78146000   15.34517000      0.419316    0.04601500    0.02621800
Ge    7.85156000   20.55545000    3.66127000     -0.197118   -0.11250900    0.18615800
Ge    9.20258000   17.05810000   12.65008000      0.328954   -0.81497500    0.16739300
Ge   12.11858000    1.73239000    5.39653000     -0.040239   -0.31610000    0.50239200
Ge   12.54193000    4.16850000   14.09658000      0.365789    0.69324400    0.45713900
Ge   17.64786000    4.27460000    5.08428000     -0.516152    1.91084300    0.48058700
Ge   13.82789000    8.88953000   14.39408000     -0.017773   -0.71524000   -0.25350400
Ge   14.77408000   13.30476000    3.54275000      0.710524   -0.29025000    0.62449900
Ge   13.29104000   16.16374000   12.39516000      0.190538    0.10341100    0.66571000
Ge   10.82516000   18.52595000    4.01249000      0.311237    0.04510100   -0.75096200
Ge   11.84833000   19.64451000   16.64498000     -0.844852    0.10041300    0.09630400
Ge   22.16314000    5.09026000    5.86693000      0.155173   -0.11568000   -0.35945400
Ge   22.36624000    3.15823000   13.74634000     -0.302684    0.15720700   -0.65037000
Ge   18.82766000    8.01195000    7.05286000      1.433941    0.41573800   -0.69480400
Ge   18.08575000   10.17951000   13.14590000     -1.419210    0.66576400   -0.69112000
Ge   19.93697000   16.86356000    1.34080000      0.006715    0.18574100   -0.83414600
Ge   19.18934000   15.62683000   14.07853000     -0.442555    0.08214300   -0.34252000
Ge   19.28334000   20.92600000    4.95366000     -0.329122   -0.83408100    1.34466300
Ge   21.77658000   21.31137000   12.89470000     -0.125909   -0.30530000   -0.30902100
Ge    3.88227000    2.64383000    3.13181000      0.142149   -0.51137500   -0.08420600
Ge    6.08549000    0.54130000   13.21589000     -0.479008   -0.26016500    0.11542600
Ge    3.75807000    7.94154000    3.98969000      0.744988   -0.57307600    0.60797500
Ge    6.89965000    4.83474000   14.53155000     -0.206653    0.15154000    0.24700400
Ge    4.20196000   12.51053000    2.17126000      0.689943   -1.00684800   -0.81618800
Ge    4.13753000   10.63478000   12.24792000      0.078887    0.75648800    0.31711900
Ge    3.60482000   22.50886000    6.64424000      0.898442   -0.22760900   -0.23024900
Ge    6.93783000   19.21350000   12.34689000      0.064717    0.10349500    0.78310400
Ge   10.78771000    3.40819000    2.60044000     -0.305962    0.23218800    0.20382000
Ge    8.92548000    4.56500000   12.61212000     -0.257122   -0.06757100   -0.13840600
Ge   11.76080000    8.12502000    1.17536000      1.006437    1.42663400    0.93755000
Ge   10.91203000    7.40241000   12.32805000      0.770691    0.12988600   -0.45583800
Ge    8.34011000   14.03089000    1.60076000     -0.616183    0.01294500    0.14286400
Ge    8.21675000   12.74486000   10.76913000     -0.069394    0.25891100    0.25402600
Ge   11.99596000   21.38022000    1.36534000     -0.082598   -0.81410200   -0.39485700
Ge   11.09205000   19.09281000   12.53572000      0.157065    0.76648200    0.84748500
Ge   22.15083000    0.56461000   16.50358000      0.034726   -0.77675200   -0.29729600
Ge   12.53182000    2.02940000   10.18627000      0.657471    0.06685700    0.27112600
Ge   16.24601000    6.71470000    2.09934000      0.157681    0.48857900   -1.33114700
Ge   15.53589000    7.10090000   10.93745000     -1.212257    0.09640800   -1.26144000
Ge   18.14765000   11.74745000    1.68059000     -0.167241   -0.66531100    0.07413600
Ge   16.75866000   16.77101000    9.39820000      0.022687   -0.62856700    0.23652500
Ge   17.43691000   21.19565000    2.71383000     -0.653103   -0.33445500   -0.56427000
Ge   14.38230000   20.00084000   10.66371000      0.375593   -0.74299600   -0.54319300
Ge   21.77457000    1.66597000    2.35141000     -0.593258    0.12787600   -0.37116600
Ge   21.25097000    1.67195000   10.11446000      0.559608   -0.44039100    0.73821100
Ge    0.80003000    8.81231000    1.54305000      0.145522   -0.27526300    0.58319000
Ge   21.44068000    8.85300000   13.13471000      0.919276   -0.00895400    0.12753200
Ge   20.26456000   13.33061000    1.01367000      0.418854   -0.76687200   -0.36639200
Ge    0.63941000   14.50518000    9.48504000     -0.097547   -1.67031900   -0.36730400
Ge    1.81370000   18.67620000    4.60191000      3.496623    1.79085600    0.24185300
Ge   19.49939000   19.39892000   10.94420000     -0.397804   -0.41141500    0.19032100
Se   21.04923000    0.01692000    0.52656000      0.800974    0.78355100    0.38092100
Se    1.31654000    1.23480000    8.92628000      0.743977    0.79392700    1.27133000
Se    2.63038000    9.76977000    3.01332000     -0.433092    0.97535000   -0.48542100
Se   22.16284000    6.45173000   12.38688000     -0.182561    0.97839200   -0.19784500
Se   21.96929000   12.56505000   17.84248000      0.465141    0.53451000    0.91908400
Se    2.22576000   12.63336000    9.01519000     -0.296843    0.04536300   -0.31377800
Se    3.02932000   16.74324000    5.39317000     -0.532018   -0.90054500    0.33642500
Se    1.39198000   16.26878000   10.79010000      1.116032    1.23223000    0.92589700
Se    5.14266000    2.41349000    1.04164000     -0.060067    0.20991800   -0.12845700
Se    6.08163000    4.59629000   12.05453000      0.242874   -0.56924400   -0.97319500
Se    6.81228000    5.96761000    2.10450000     -0.534828    0.76566100    0.15097400
Se    8.00604000    7.25270000   12.73293000      0.286880    0.04327800   -0.39687100
Se    8.02896000   10.13671000    0.61595000     -0.896394    0.15056900   -0.05070700
Se    6.22926000   12.35652000   14.14016000     -0.522954   -0.32907200   -0.89270800
Se    6.08938000   20.04717000    1.76173000     -0.471250    0.23157700    0.80875800
Se    8.70185000   18.81092000   10.45052000      0.186241   -0.13346100    0.44310300
Se   12.14514000    1.61742000    0.59801000      0.428048    0.60860700    0.28076500
Se   12.49446000    1.96211000   13.20336000     -0.452521   -0.79725000   -0.43221600
Se   12.32614000    7.55616000   17.99673000      1.214239    0.75332000   -1.65130500
Se    9.62475000    9.88404000   10.34484000     -0.121205   -1.09020500   -0.43085100
Se   12.99338000   13.51775000    1.93701000     -0.396749   -0.51899800   -1.16773900
Se   12.56530000   10.75629000    7.99048000     -0.139042    0.14098200    0.41771800
Se   13.69453000   16.41603000    2.35719000      0.762166    0.80637900    0.37661700
Se   12.49075000   17.72967000   10.48777000     -0.583419   -0.24227200   -0.70082700
Se   18.80067000    3.55291000    3.01661000     -1.034251   -0.61136200   -0.58574200
Se   16.15273000    1.76157000   12.95274000      0.924284   -0.37266500   -0.26874800
Se   16.36515000    7.81001000   18.04737000      0.790875    0.99905500    0.90846100
Se   17.62201000    5.18418000   12.73387000      0.166917    0.31692800   -0.47435100
Se   18.31625000    9.25739000    0.82981000      0.355026    0.61220000    0.13229300
Se   17.52681000   14.32754000    7.11348000     -0.630491    0.28725500   -0.85354600
Se   20.90452000   19.35730000    0.68125000      0.429106    0.12721100    0.13494300
Se   15.76922000   18.83938000    8.55791000      0.043538   -0.00350600    0.09427500
Se    1.59917000    2.28109000    1.90229000     -0.332543    0.73892900    0.60547900
Se    5.19255000    7.92159000   10.04613000      1.417006   -0.89309500   -0.82033700
Se    6.09750000   10.36127000    2.22300000      0.190486   -0.02337300   -0.24621000
Se    4.69148000   11.93391000    9.95742000     -0.335127    0.01833200    0.07260600
Se    2.98680000   15.46688000    1.38888000      0.070303    0.85306200   -0.67582100
Se    2.09249000   13.13166000   12.67287000      0.770339    0.54456500    0.92062800
Se    3.64543000   21.80293000   18.51957000     -0.731746   -0.89019300    0.56535200
Se    5.94203000   20.24056000   10.26516000     -0.824649    1.53658500   -0.39678600
Se   12.64140000    5.35177000    2.16370000     -0.442315   -0.17333400   -0.25162200
Se    6.41365000    5.41885000    7.47646000      0.378002   -0.21555200    0.51483400
Se   11.57813000   10.53080000    1.07733000      0.199406    1.26307300    0.91039900
Se    6.66726000   10.66990000   10.23951000      0.823952    0.13193500    0.17695400
Se   10.16197000   15.65972000    1.92377000     -0.251092    0.53372100    0.04200000
Se   12.95741000   12.70654000   12.88717000     -0.691723    0.74683300    0.64791600
Se   10.28908000   21.50922000   18.10311000      0.173751   -0.70969300    0.30390700
Se    8.35133000   22.25106000   12.33013000      0.161333   -0.44927700    0.61761300
Se   15.05811000    4.77673000    0.19346000      0.287504   -0.25317000    0.09152500
Se   17.43462000    6.88357000    8.53977000     -1.375755   -0.94506900    1.27160100
Se   14.77180000   10.56180000   18.77630000      0.701572    0.07512200    0.12243200
Se   15.10509000   11.87404000   12.62578000      0.522033   -0.83269900   -0.86225100
Se   18.10720000   15.24581000    3.02758000     -0.691150   -0.28316600   -0.03390300
Se   16.23435000   11.53262000    9.98896000     -0.480136   -0.43103400   -0.37076800
Se   17.99245000    0.02630000    0.72135000     -1.021098   -0.26921400    0.52724700
Se   15.03286000   21.04393000    7.66154000     -0.233813    0.80303400   -0.52483300
Se   22.03982000    4.56652000    0.95822000     -0.671558    0.67864300    0.90089800
Se   20.83313000    4.02012000   11.46510000      0.209179   -0.81043400    0.02202100
Se   20.83313000    6.80860000    0.89228000     -0.356231   -1.31349500    0.09251200
Se   21.08945000   10.58730000   11.39558000      0.856359    0.25959800    0.27817100
Se   19.16628000   14.77451000   18.32833000      0.025678    0.03074300   -0.08602600
Se   20.83537000   16.87886000   12.44643000      0.179214   -0.21817900    0.17873900
Se   21.02603000    0.01351000    4.36214000      0.906903    0.03563600   -0.88035800
Se   17.19172000   20.55414000   11.08758000      0.327856    0.87887300    0.01165200
Se    2.84771000    5.12526000    8.25976000      0.455265   -0.25727900    0.80642500
Se   21.77937000    3.56739000   16.95148000     -0.427360   -1.35430900    1.25880500
Se    2.76384000    9.25863000    8.42282000     -0.249294    0.18661400   -0.11357000
Se    1.51810000   10.05958000   16.80373000      0.146509   -0.62483200    0.40825600
Se    5.16404000   17.57852000    8.05204000     -1.794744    1.08012700    1.11191300
Se    0.30897000   17.98710000   15.78413000     -0.278917    0.66989700   -0.01944300
Se    1.16360000   19.20154000   12.99290000     -0.470913   -0.13822000   -0.33635700
Se    1.29606000   20.58961000   17.05700000     -0.326712    0.22168000    0.28270800
Se    5.25709000    3.71589000    4.90307000      0.349443    0.06499400   -0.03974100
Se    5.26090000    6.04427000   17.78800000     -1.727137    0.08503700    0.84344600
Se    5.72006000    9.42338000    5.61843000     -0.843700   -0.62227100    0.34831700
Se    4.10895000    6.95672000   15.81417000     -0.101106   -0.15379400    0.11630900
Se    6.78462000   14.70546000   11.45541000      0.508718   -0.00491800    0.10114200
Se    6.24073000   16.83563000   18.50517000      0.296765    0.31739400   -0.55898000
Se    9.88108000   18.28227000    6.39419000     -0.707531   -0.28975000   -0.27391000
Se    5.97702000   19.90818000   18.33510000      0.175321   -0.24773100   -0.89440500
Se   10.03701000    2.72860000   10.01990000     -0.328476    0.32117900    1.28895200
Se   12.34675000    3.65354000   16.61382000      0.643886    0.32896000    0.24019300
Se   13.28023000    7.15099000    6.67543000      0.264779    0.68646100    0.49853000
Se   13.74538000   10.70046000   16.12632000     -0.247934    0.19825500    0.47198000
Se   11.04148000   14.85969000    7.83099000      0.776887    0.12596900    0.10108400
Se   14.33469000   15.83625000   17.76279000      0.150920    1.02742100   -0.86382800
Se   12.01145000    0.53281000    7.82639000     -0.382663    0.61164600   -1.05094500
Se   14.60298000   20.15004000   17.53427000      0.037190    0.38507700    0.00576200
Se   13.72641000    4.59031000   10.40585000      0.458452   -0.61872500   -0.06625000
Se   20.25638000    2.18925000   15.51237000      0.489774   -0.40952700    0.16881800
Se   18.96776000   10.05345000   10.76901000     -0.924918   -0.10721500   -1.24851600
Se   17.85087000   10.91079000   15.64426000     -1.109631   -0.27392700    0.46623200
Se   14.30438000   16.51424000    6.53331000      0.263520   -0.44232000    1.24126000
Se   19.98460000   13.40934000   14.79803000      0.166823    0.03928000    0.13169600
Se   19.04766000   21.27674000    7.71870000      0.200632   -0.59987600   -0.20920300
Se   18.88162000   18.75012000    3.18059000      0.638419    0.67302900   -1.41405200
Se    5.49260000    1.20361000    7.83023000     -0.182371   -0.10061000    0.38311300
Se    3.88956000    2.80745000   17.59790000     -0.610723   -0.66354800    0.80500800
Se    8.02169000    9.73537000    7.61968000     -0.001956   -0.15530400    0.29682000
Se    4.25984000    9.71890000   18.60889000      0.315941   -0.01972800   -0.15116500
Se    6.71621000   17.33249000    6.04034000     -0.111727    0.38838500   -1.06191900
Se    4.92654000   12.34479000   18.50073000     -0.144161    0.32318800   -0.00784200
Se    1.70987000   19.66633000   10.50635000     -0.228876    0.85582500    0.23159900
Se    2.26520000   19.18955000    1.83748000      0.589468   -1.18095700   -0.26045900
Se    8.84805000   21.89618000    8.65513000     -1.199401    0.24844700   -0.07112100
Se    8.79798000    3.31748000    0.84060000      0.118819    0.27147100    1.20349900
Se    9.84172000    5.56876000    8.43439000     -0.205213    0.47010600    0.61543200
Se    8.93541000    7.02110000   18.78793000     -0.338729   -0.58114800   -0.58295900
Se    8.69723000   11.95903000    5.42035000      0.454919    0.91468100    0.95599100
Se    7.66288000   14.97444000   18.00358000      0.218086   -0.77987300   -0.32319900
Se   11.98949000   21.70747000   10.78518000     -0.591345    0.00450100    0.16593700
Se   11.07110000   13.76837000   17.32720000     -0.505382   -0.21391900   -0.25982600
Se   15.70026000    0.83235000    7.64270000     -0.031642   -0.31389200    0.24239200
Se   16.60847000    3.22820000    1.09317000     -0.088222    0.03998500   -0.52080500
Se   15.65189000    4.66714000    7.37552000      0.245016    0.14204900   -0.18399600
Se   15.10846000    6.97320000   16.43146000     -0.842050   -0.52064300   -1.70521100
Se   15.98322000    9.35987000    9.14911000     -0.137652    0.54187100   -0.00762600
Se   14.55262000   13.01363000   18.79811000     -0.699281    0.10155500    0.27281200
Se   13.43410000   18.96007000    5.52280000      0.008497   -0.08026200   -0.25346200
Se   17.53582000   17.73245000    0.20226000     -0.682766    0.23482300   -0.17483500
Se   20.64056000    1.85166000    7.78630000      0.086060    0.47984600   -0.40849900
Se    0.51529000    0.80981000   13.69927000      0.535427   -0.62203200    0.68508900
Se   20.55160000    7.27244000    9.29526000     -0.764689    1.51641100    0.72345700
Se   21.56129000    7.59902000   16.65038000      0.207704    0.31978400    0.54574800
Se   21.46525000   11.08801000    7.17217000     -0.350203    0.07444100   -0.22275100
Se   20.11070000   11.20858000   17.13199000      0.153683    0.54606900   -0.13190800
Se   19.04537000   17.27903000    8.00185000      0.038901   -0.17238100   -0.02601500
Se   19.93975000   17.18573000   16.16678000      0.144878   -0.85996000   -0.44416200
Se    3.65554000    0.04956000   12.42096000      0.288670    0.21385700   -0.39641000
Se    2.93415000    2.03707000   15.22539000     -0.177638   -0.16128400    0.01934600
Se    0.05726000    7.55722000    8.18753000      0.668722    0.38795600   -0.54937100
Se    0.85502000    9.96024000   14.39713000      0.237925   -0.06724400   -0.48002500
Se    4.01651000   14.06550000    4.45920000     -1.130477    1.31959700    0.87848300
Se    1.90682000   13.91146000   16.94207000     -0.057698   -0.36765900   -0.69066800
Se    0.71919000   16.96162000    8.54634000     -0.219929    0.28296400   -0.49666600
Se    2.60018000   20.37577000   14.25317000      0.584886    0.33860800    0.62460300
Se    6.89338000    1.17128000    3.38238000      0.290443   -0.71069000   -0.09261700
Se    7.58968000    0.25627000    1.37320000      0.203544   -0.36465800    0.46923200
Se    9.34392000    8.21668000    6.36936000      0.571919   -0.29888400    0.76713500
Se    4.32676000    4.47577000   14.69512000     -0.081086    0.64584700    0.77712200
Se    5.27197000   12.17029000    4.76796000      0.268265   -0.94088700    0.57052600
Se    9.60295000   13.76428000   13.64512000      0.310336    0.07452000    0.18181000
Se    8.05361000   17.51951000    3.99414000      1.152217    0.76426300   -0.73704400
Se    7.23812000   16.76612000   14.32606000      0.566154   -0.11887300   -0.02336100
Se   13.91832000    0.69143000    3.75506000      0.238883    0.07804900    0.44399900
Se   13.74100000   22.30822000   15.84313000     -0.089163    0.25115800    0.46293500
Se   12.07943000    9.86123000    4.95544000     -0.226028    0.96158100    0.06158400
Se   11.93843000    6.55708000   15.21750000     -0.197266    0.03948900   -1.17987700
Se   14.00874000   12.62203000    5.67809000     -0.266465    0.58139100   -0.26665800
Se   13.97363000   14.39322000   14.92316000     -0.393099   -0.51464400   -0.62604300
Se   11.91641000   18.87235000    7.45229000      0.553782    0.21733800    0.69486300
Se   12.00222000   18.60905000    1.06500000      0.876156   -0.30981800   -0.18913600
Se   19.90513000    1.84470000    5.37093000     -0.531427    1.13455200   -0.43935500
Se   17.99050000    0.65677000   16.25482000     -0.147876   -0.20851900    0.24468800
Se   19.49353000    5.47914000    6.31485000      0.269522   -0.58978700   -0.21828000
Se   19.03989000    5.95784000   16.51430000     -0.747133    0.10875900    0.95738700
Se   19.21212000   11.74371000    3.97563000     -0.028154   -0.24458100    0.67662000
Se   17.23451000   14.29914000   12.69966000      0.521301    0.17292100    0.23828800
Se   17.46691000   18.40653000    4.92523000     -1.345103   -0.19312600    1.19897800
Se   17.61662000   19.31766000   15.79715000     -0.157975    1.64701600   -0.45995300
Se    2.29583000    6.75386000    5.81672000      0.347512    0.55941200   -0.36056100
Se    1.60684000    6.43216000   13.66821000      0.793247    0.75524600   -0.26854100
Se    1.86974000   11.74429000    5.30178000     -1.429466    0.03784700   -0.82650200
Se    3.84846000   10.68316000   14.94528000     -0.072226   -0.28192800    0.36861300
Se    5.94335000   13.81036000    7.56150000      0.598048    0.37898800    0.37243100
Se    3.06871000   17.39634000   17.83886000      0.484305    0.10212200    0.58203800
Se    1.72543000   19.73046000    8.02786000     -0.139387    0.42630100   -1.27323100
Se    6.66113000   21.21517000   15.09955000      0.362601    0.95447400   -0.31994100
Se    9.37208000    0.56365000    4.99991000     -0.026787   -0.12757700   -0.24630700
Se    7.38298000    1.87415000   17.37368000     -0.164458    0.25149400    0.14090700
Se   12.90896000   12.14147000    9.90919000      0.255024   -0.31463900   -0.45995600
Se    9.83740000   10.32784000   17.66930000      0.569779   -0.44138300   -2.07572800
Se    8.27592000   13.51509000    8.42795000     -0.080619   -0.21789800   -0.82424800
Se   11.59166000   17.34701000   14.31747000      0.222335   -0.71158300   -0.49933000
Se   12.48741000   20.92945000    4.60521000     -0.971853   -0.02970600   -0.30048200
Se   10.22909000   17.69180000   17.91649000      1.114631    0.02384800    0.03916500
Se   10.81942000    4.41817000    6.74886000      0.530615   -0.53965200   -0.23146500
Se   18.00560000    3.79207000   16.52984000     -0.584129    0.09437000    0.44818600
Se   16.95714000    8.87829000    5.47787000     -0.084246   -0.17234000   -0.66226200
Se   16.52430000    7.93885000   12.83829000      0.020685    0.91306300    1.00541800
Se   17.46454000   11.48583000    5.58547000      0.267757    0.09999600   -0.05529700
Se   15.09913000   17.43710000   15.80951000      0.163085   -0.34146800    0.21210400
Se   16.56256000    2.16899000    4.97833000     -1.289053   -0.15638000   -0.12770800
Se   18.41696000    2.99481000   13.20616000     -0.511056   -0.31479700   -0.06792100
Se    1.29347000    2.84614000    5.28505000     -0.380285    0.58677000    0.14159100
Se   22.27205000    5.18879000   15.49576000      1.486001    0.95773600   -0.44715000
Se   18.82932000   13.01779000    8.48600000      0.376094    0.77477300    0.76401100
Se   22.23044000   12.94057000   13.72018000     -0.195795    0.31487100   -0.15539300
Se   21.57137000   14.84785000    5.96036000     -1.004677    0.15472100    0.06440000
Se   20.19522000   19.08328000   13.42632000      0.084916   -0.21211900   -0.27217900
Se   20.39922000   19.37669000    8.18757000     -0.366082    0.51492400    0.15860200
Se   20.94621000   20.57547000   15.86474000      0.907674    1.07775300    0.43513200
Se    3.59531000    0.33976000    4.03251000      0.356288    0.31397900    0.37254400
Se    7.31528000    2.31132000   14.90179000     -0.319403    0.03513700    0.55622500
Se    2.24146000    6.19726000    0.80896000      0.511907    0.67031300   -0.15281600
Se    4.46667000    8.09666000   12.24726000      0.462470   -0.58819200    1.22299900
Se    1.92146000   13.51334000    1.75194000     -0.990293   -0.30008900    0.12397600
Se    5.03386000   14.35077000   15.26700000      1.846284    0.98060200   -0.42096500
Se    5.38881000   17.81100000    2.35638000     -0.603925    0.14430700    0.59345400
Se    4.98276000   17.35647000   12.02739000      0.147898    0.35095500    0.20377500
Se   10.88831000    0.73559000    2.66868000     -1.446708    0.34100400    0.31046300
Se   10.62562000    0.93757000   16.86774000      0.908379   -0.30321300   -0.35725000
Se   10.03448000    7.31499000    2.44161000     -1.455596   -1.07622500    1.10183300
Se    7.20350000    8.16418000   15.70479000      0.156733   -0.15743800    0.43531700
Se   10.45415000   11.17726000    3.34521000      0.771888   -0.77634000   -0.03801300
Se    9.65906000   10.71938000   12.59047000     -0.406968    0.20054700    0.01874900
Se    9.61460000   19.95488000    1.83743000      0.068405    0.10629600    0.52410000
Se   14.83863000   18.45806000   12.54173000      0.169275   -0.91990200    0.87685000
Se   14.33024000    3.28819000    5.80261000      0.387642   -0.05735900    0.19562500
Se   15.24624000    1.53019000   15.77805000      0.333167   -0.38491500    0.08059300
Se   15.60322000    5.87482000    4.13811000      0.304058   -0.89301800    1.35015800
Se   13.07531000    8.60932000   10.95067000     -0.310992   -0.95649600    0.09150600
Se   15.66779000   11.07097000    2.27864000      0.291234    0.09006300    0.38470300
Se   16.92263000   14.05997000   16.41906000     -0.112464   -0.42437400    0.40184700
Se   15.58150000   15.79836000    3.81596000     -0.496945   -0.38187700   -0.65808000
Se   14.36596000   21.88126000   12.55642000      0.234670    0.10241600    0.87176900
Se    0.61946000   21.50644000    6.25803000     -0.063768   -0.30851900    0.23305000
Se   19.58714000    0.10867000   13.34555000     -0.228715   -0.45725600   -0.44254200
Se   22.45996000    7.33021000    3.43498000     -0.218483   -0.15231100   -0.02192400
Se   19.29463000    8.36150000   14.06021000      1.049723   -0.74564700    0.58837400
Se    1.22801000   14.09716000    6.12258000      0.947082   -0.84780700    0.15948800
Se    0.38306000   15.99885000   14.61909000     -0.204573   -1.27140600   -0.06483600
Se   22.26341000   18.29264000    4.42631000     -3.710440   -0.69384200   -0.34699800
Se   21.82008000   21.42470000   10.07554000     -0.182015   -0.20984400    1.19539500
Se    3.54049000    5.06913000    3.27428000     -0.475252    0.00099900   -0.18458700
Se    1.93643000    3.46494000   11.89346000     -1.402712    0.68176600   -0.16277500
Se   21.77821000   10.96377000    2.20653000     -0.129311   -0.63403100    0.27276000
Se    1.79458000   10.27742000   11.54722000     -0.905580   -0.82777900    0.64927100
Se   22.03874000   16.25861000   18.59809000      0.473214    0.12601200    0.39429700
Se    3.34224000   15.79593000   13.05077000     -0.420086   -0.20270900   -0.90927400
Se    1.75927000   21.36954000    2.34774000      0.137252    0.78739500    0.04723000
Se    5.31640000   19.43145000   15.47604000     -0.243473   -0.54562800    0.43006100
Se    8.94823000    4.36224000    4.61109000      0.171764   -0.03763900   -0.38786100
Se    9.64081000    2.78068000   14.34180000      0.484953   -0.25513100   -0.32165600
Se    6.21962000    6.67603000    4.63514000      0.203058   -0.19259000   -0.68517800
Se    8.13613000   11.92825000   15.22343000      0.810049   -0.23591600    1.28889500
Se    5.76757000   14.49603000    2.30324000      0.688783    0.59224400   -0.38132500
Se   10.26340000   14.60787000   11.35694000      0.047031    0.75883300    0.21141800
Se    6.02247000   20.99018000    5.88586000     -0.471015   -0.34205400    0.17526100
Se    9.73201000   19.97659000   14.85419000      0.116362    0.22229300    0.00358300
Se   13.48482000    2.73686000    2.43428000      0.543419   -0.40765700   -0.18149500
Se   11.45102000    4.90357000   11.69635000     -0.001441    0.62742600    0.39018100
Se   13.73607000    7.92155000    2.61792000      0.145938    0.39850600    0.26283200
Se   10.95683000    9.21887000   14.18022000      0.027612    0.25049800    0.13851800
Se    9.04780000   14.06929000    4.10473000      0.162892   -0.18818700    0.21112200
Se   14.93157000   14.63065000    9.70075000     -0.193622    0.23382100    0.36847500
Se   14.97209000   20.04793000    2.19742000      0.823275    0.27316000    0.18241600
Se   13.36375000   20.14550000   14.07885000     -0.019695   -0.13103400   -0.34906400
Se   18.62857000    5.55927000    0.82938000      0.076896    1.33009500    0.12961000
Se   15.01536000    4.49103000   14.00381000     -0.431013    0.36857600   -0.49821800
Se   18.37626000    8.01132000    3.66535000      0.382878    0.22487600   -0.12094000
Se   21.06849000   14.24100000   11.25687000      0.168906   -0.06624300    0.61781100
Se   20.63991000   14.92931000    2.88829000      0.658203   -0.36785100    0.31303300
Se   17.86406000   17.32109000   11.61664000      0.028889    0.10373300   -0.46918300
Se   17.09772000   22.25037000    4.96586000      0.307946   -1.12071700   -0.80105500
Se   17.18969000    1.55855000   10.59467000     -1.093593    0.29490500   -0.07105700
