384
22.54784000 22.54784000 18.93360000
Ge    5.23628000    5.20984000    9.74067000     -0.397610    0.09685800   -1.03679900
Ge    4.43561000    7.51702000    1.10491000     -0.154519   -0.23491800    0.05488100
Ge    3.39940000   11.26292000    7.01925000      1.088719   -0.10960500    0.74826700
Ge    6.57541000   10.24151000   17.29164000     -0.592016    0.57779200    0.37906300
Ge    4.50422000   14.39021000   10.82026000     -0.102371    0.25663700    0.06799900
Ge    8.51396000   17.71713000    0.94362000      0.382132   -0.33701100    0.52197500
Ge    7.34381000   19.23859000    8.16516000     -0.808565    0.56140600   -0.33806000
Ge    5.01890000    0.51964000   17.03561000      0.130641    1.13573700   -1.05228600
Ge    8.00165000    7.51409000   10.22673000      0.109538    0.31701200   -0.24957800
Ge   11.40054000    5.53960000   18.75825000     -0.872730   -1.90113800    0.05036900
Ge   11.62531000    8.37405000    8.80422000      0.561671    0.03637500    0.22589800
Ge    9.77215000   12.28894000    0.20733000      0.209632    0.07828600    0.12908200
Ge   10.20934000   17.20033000    9.23300000      0.119183   -0.64598900   -0.11173900
Ge   12.08414000   15.25889000    0.05080000     -0.090928    0.47108200    0.50037700
Ge    9.88590000    0.29770000   10.57185000     -0.138869   -0.36147900    0.26406500
Ge   14.94033000   21.96120000    0.50450000      0.098804   -0.20992600   -0.02809100
Ge   18.64825000    4.83563000    9.75068000     -0.284611    0.45239800    0.08863600
Ge   18.76807000    8.92195000   17.26306000     -0.606438   -0.57800600    0.03959100
Ge   18.70668000   14.89144000   10.76939000     -0.848245   -0.10796700    0.02764100
Ge   17.30341000   11.97555000   18.06911000      0.250532    0.12497400   -0.84870100
Ge   13.10013000   15.87358000    8.72599000      0.724727   -0.13971300   -0.59990200
Ge   16.61862000   15.32939000    0.17170000      0.199535   -0.09182300    0.26221400
Ge   16.26793000    3.97725000    9.72255000     -0.949448   -0.56539900    0.65127300
Ge   19.24954000    3.27204000    0.16919000     -0.487114   -0.39197000   -0.41879700
Ge    1.09100000    3.94700000    9.70314000      0.770515   -0.33517100   -1.25362700
Ge   20.97577000    4.11173000    3.58959000      1.993649   -0.12786200    0.07154500
Ge    0.36408000   10.19889000    9.16151000      0.088292    0.08499000   -0.31667900
Ge   22.01117000    9.79754000   18.43040000     -0.184426   -0.03130100   -0.75231800
Ge   21.10441000   15.51515000    8.43377000     -0.977138    0.06865300   -0.30628700
Ge    4.12559000   14.87846000   17.55648000     -0.137087   -0.36038500    1.43407700
Ge   19.40420000   22.48174000   10.85148000     -0.357373    0.01626700   -0.17539100
Ge   22.01812000   20.53768000    2.65608000     -1.350095   -0.19246000   -0.18123400
Ge    4.21139000    7.49354000    7.37210000     -0.119083   -0.56048800   -0.46621800
Ge    1.62363000    7.29645000   17.31383000      0.048484    0.46007200   -0.10368500
Ge   20.78976000    9.30638000    3.80652000     -0.749632    0.30958000   -0.25739800
Ge    3.20928000   13.04268000   15.05831000     -1.847086   -0.68133100   -0.68722100
Ge    4.51241000   18.59761000    4.76669000      0.731690    0.93139900   -0.32128800
Ge    0.99269000   18.61751000   18.65304000     -1.079314   -0.18015300    0.02487200
Ge    3.98918000   18.72084000   10.35311000     -0.061071   -0.43443900   -0.91769800
Ge    1.86184000    1.08525000   18.81477000      0.374311   -0.42903700   -1.70903200
Ge    9.47288000    2.03107000    7.81064000      1.174681   -0.93466600   -1.14938000
Ge    7.45717000    5.77309000   17.12030000      1.600176   -0.02405500   -0.65740200
Ge    7.79459000   10.42142000    3.90176000      0.125275   -1.69610300   -0.53304600
Ge    9.76718000    7.86977000   16.38418000     -0.022715    0.45357700    0.38158400
Ge    7.00953000   16.01227000    8.23840000      0.672325   -0.86974200    1.01634900
Ge    9.16623000   15.49042000   15.80670000      0.777933   -0.95549500   -0.46368800
Ge   10.21651000   21.00960000    6.76791000      0.890369    0.72800000   -0.60836600
Ge   10.50679000   22.48087000   14.28928000     -0.015183    0.03857400   -0.12937300
Ge   11.84643000    7.45164000    4.55852000      0.385780    0.02530700    0.12107300
Ge   15.26355000    4.25584000   16.46895000     -0.272869    0.27970300    0.15799200
Ge   14.59519000    9.42054000    6.56858000     -1.111450   -0.09257200    0.67951300
Ge   15.48971000   12.23985000   15.02535000      0.030823    1.19756000    0.77793600
Ge   12.37556000   15.21984000    5.66190000      0.227388   -0.68570000   -0.47065800
Ge   14.52193000   18.34135000    0.29526000     -0.088221   -0.34643700    0.45740000
Ge   14.73490000    0.02266000    9.79321000      0.021172    0.67262300   -0.10494200
Ge   16.89689000   21.44633000   13.60455000      0.104594    0.43648700   -0.40710600
Ge   21.32166000    5.05554000    8.95833000     -0.104868   -1.10581800   -0.66548400
Ge   19.93886000    5.72684000   14.25609000     -0.518784   -0.24522000   -0.61183600
Ge   19.07351000   10.73967000    7.75325000      0.073768   -0.99234200   -0.09285600
Ge   21.39193000   14.83229000   16.52117000     -0.109494    0.48785900   -0.09291800
Ge   18.79424000   16.36307000    5.31466000      0.320336   -0.30691300    0.50460200
Ge   17.46919000   17.06437000   16.65363000     -0.387351    0.02773500    0.51156500
Ge    0.31902000    1.38957000    6.72687000     -0.340043   -0.75694600    0.63905700
Ge   18.98185000   21.05339000   17.47524000     -0.528357   -0.25310400   -0.46279000
Ge    7.56623000    2.92596000    6.35780000     -1.264984    0.61993000   -0.45003800
Ge    3.90545000    2.75293000   12.86530000      1.553508   -0.75171600    0.30499600
Ge   22.45984000    9.02574000    5.66553000      0.648930    0.29604000    1.23030000
Ge    2.10793000    7.53499000   11.33298000     -0.438048    0.14008300   -0.06559100
Ge    0.72610000   15.67471000    4.11527000      0.092714   -0.04778300   -0.41018400
Ge    2.84621000   17.62555000   15.52772000     -0.204109    0.40702400   -1.14412600
Ge    3.98131000   22.36089000    9.91161000      0.055708   -0.25886800   -0.74689100
Ge    8.19369000   17.75171000   16.55326000     -1.685154    1.48620100   -0.59458600
Ge    7.17705000    3.67402000    2.81704000     -0.558064   -0.23587800    0.48224200
Ge    9.62459000    3.23832000   17.55216000     -0.180158    0.27133100   -1.08913100
Ge    8.26271000    7.95917000    4.24550000     -0.154952    0.33256900   -0.55568400
Ge    6.95492000    9.47469000   13.52351000      0.474311    0.15581600   -0.53857900
Ge    6.37945000   14.87044000    4.94548000      0.555693   -0.48357300   -0.16299400
Ge   11.20286000   11.78158000   15.34700000      0.396857    0.15698600   -0.04160200
Ge    7.81149000   20.55766000    3.64852000     -0.044750   -0.12686300    0.28095600
Ge    9.21763000   17.06946000   12.62316000      0.287419   -0.99756000    0.18988900
Ge   12.14196000    1.70946000    5.42461000     -0.008352   -0.14640900    0.33254700
Ge   12.53747000    4.15711000   14.13462000      0.547811    0.67782300    0.31321100
Ge   17.60082000    4.25333000    5.10627000      0.115840    2.37266500    0.37766800
Ge   13.86376000    8.92958000   14.43284000      0.041256   -0.70527600   -0.27833300
Ge   14.75468000   13.31161000    3.55475000      1.012744   -0.16225100    0.26733500
Ge   13.29174000   16.11296000   12.35642000      0.182574    0.05367600    0.74194300
Ge   10.79648000   18.54094000    3.98545000      0.259336    0.09042000   -0.64862100
Ge   11.89282000   19.69180000   16.60273000     -0.826876   -0.05339400    0.24870400
Ge   22.16869000    5.13118000    5.84069000      0.116009   -0.05728600   -0.26175700
Ge   22.33142000    3.22293000   13.69073000     -0.118604   -0.10153000   -0.69274000
Ge   18.83986000    8.01098000    7.06994000      1.562813    0.64481200   -0.92514300
Ge   18.08824000   10.15125000   13.19248000     -1.905742    1.47477600   -1.46258500
Ge   19.87153000   16.88005000    1.29688000      0.129698    0.26173300   -0.85925300
Ge   19.22059000   15.66107000   14.07914000     -0.491481    0.21116500   -0.42553600
Ge   19.30590000   20.87063000    4.99187000     -0.332137   -0.44463600    1.29029800
Ge   21.76358000   21.31864000   12.95651000     -0.175166   -0.34827200   -0.32084500
Ge    3.83257000    2.66943000    3.11136000      0.369643   -0.63529700   -0.06865200
Ge    6.09323000    0.47074000   13.22947000     -0.622298    0.04488400    0.04611100
Ge    3.77231000    7.89740000    4.02030000      0.196564    0.24525000    0.13986300
Ge    6.91466000    4.83897000   14.49235000     -0.268788   -0.06210900    0.44391400
Ge    4.17281000   12.50515000    2.21185000      1.026104   -0.91436300   -0.84892000
Ge    4.11836000   10.65053000   12.22696000      0.142265    0.66956400    0.22547200
Ge    3.54546000    0.03096000    6.68817000      0.718778   -0.23826400   -0.45648900
Ge    7.00684000   19.18168000   12.37986000     -0.072962    0.48996700    0.53323000
Ge   10.73722000    3.37934000    2.58171000     -0.284431    0.24405900    0.30888000
Ge    8.96061000    4.58335000   12.58686000     -0.186901   -0.13228000   -0.18375300
Ge   11.76895000    8.16613000    1.13657000      1.102988    1.53040000    1.49548400
Ge   10.87544000    7.41215000   12.32137000      0.710485    0.14419500   -0.42107900
Ge    8.35696000   14.02960000    1.59452000     -0.581883   -0.08021900    0.28513900
Ge    8.18557000   12.68164000   10.81988000      0.146661    0.10244200    0.16403500
Ge   11.99459000   21.39944000    1.36976000      0.016424   -0.95510000   -0.52593900
Ge   11.09894000   19.04378000   12.53545000      0.103021    1.01840500    0.79471300
Ge   22.16297000    0.59833000   16.44605000      0.263845   -0.96032600   -0.25598500
Ge   12.56369000    2.03323000   10.16372000      0.592741    0.02631000    0.41191000
Ge   16.20469000    6.67803000    2.09397000      0.094593    0.43917900   -1.18502100
Ge   15.52843000    7.05272000   10.98500000     -1.369732    0.03631800   -1.51732200
Ge   18.11628000   11.74719000    1.67867000      0.222670   -0.70515700    0.07572000
Ge   16.82232000   16.83174000    9.44367000     -0.143850   -0.49585700    0.02771800
Ge   17.45784000   21.21201000    2.75025000     -0.541298   -0.31126100   -1.02887600
Ge   14.43978000   19.99845000   10.72593000      0.358256   -0.48491400   -0.63825200
Ge   21.74688000    1.65782000    2.34796000     -0.240107    0.22417100   -0.30410900
Ge   21.28231000    1.66709000   10.15864000      0.722507   -0.37225800    0.41701200
Ge    0.73316000    8.80475000    1.55732000      0.590463   -0.34076300    0.80524600
Ge   21.42326000    8.87725000   13.14881000      1.199933   -0.23866200    0.14972300
Ge   20.22534000   13.33177000    0.97925000      0.552332   -0.95340300   -0.33438600
Ge    0.64186000   14.51133000    9.42960000     -0.041520   -1.31460700   -0.07082100
Ge    1.77601000   18.71706000    4.62714000      5.204937    1.95006400    0.58957300
Ge   19.54853000   19.39609000   10.95355000     -0.497948   -0.37407700   -0.26278800
Se   21.07130000    0.02504000    0.53175000      0.711563    0.70438900    0.35727400
Se    1.36842000    1.22976000    8.86925000      0.488193    0.78498400    1.00751200
Se    2.57607000    9.82437000    3.01645000     -0.149800    0.31924400   -0.33897400
Se   22.16725000    6.41776000   12.41789000     -0.348040    1.08733600   -0.19644300
Se   21.97213000   12.53761000   17.83848000      0.470368    0.65176100    0.76075800
Se    2.20395000   12.67016000    8.98934000     -0.006039   -0.20899200   -0.19239500
Se    3.06914000   16.73373000    5.35384000     -0.832177   -0.85645200    0.33680800
Se    1.44438000   16.21830000   10.81271000      0.916776    1.16262800    0.40327100
Se    5.12250000    2.36739000    1.05627000     -0.095101    0.41428500   -0.23525700
Se    6.08613000    4.61099000   12.09552000      0.092713   -0.55998800   -1.10843100
Se    6.77812000    5.99532000    2.11009000     -0.540397    0.60685000    0.11465300
Se    8.05916000    7.26531000   12.73550000      0.136637    0.24392700   -0.38758100
Se    8.00235000   10.12442000    0.50991000     -0.535078    0.02940100    0.33884400
Se    6.24369000   12.27233000   14.19609000     -1.193641   -0.02104300   -1.29336900
Se    6.05207000   20.03854000    1.72392000     -0.334224    0.55701400    1.33776600
Se    8.70766000   18.78084000   10.47574000      0.005219   -0.05536300    0.17905200
Se   12.14135000    1.68997000    0.63185000      0.271099    0.33595900   -0.03152800
Se   12.53848000    1.95935000   13.20173000     -0.425263   -0.79115900   -0.40731800
Se   12.33042000    7.54262000   17.99883000      1.348914    0.73499200   -1.98193900
Se    9.66219000    9.88282000   10.36480000     -0.135921   -1.07479000   -0.50404700
Se   13.00392000   13.47155000    1.94191000     -0.467200   -0.37527200   -1.37271900
Se   12.57558000   10.74062000    7.98578000     -0.074857    0.26526900    0.23140300
Se   13.71343000   16.42613000    2.38969000      0.689276    0.76013400    0.19025400
Se   12.51134000   17.67982000   10.48700000     -0.579334    0.04199200   -0.62697400
Se   18.81886000    3.56077000    2.98492000     -0.959999   -0.46091000   -0.28412500
Se   16.13542000    1.74351000   12.98616000      1.060118   -0.36610900   -0.23928900
Se   16.38348000    7.77636000   18.07005000      0.437082    0.89452200    0.50410300
Se   17.62212000    5.13908000   12.74758000      0.260931    0.39998600   -0.48172800
Se   18.30284000    9.20489000    0.84742000      0.405147    0.79433800    0.07287200
Se   17.46436000   14.35689000    7.10616000     -0.055291    0.04984300   -0.45109400
Se   20.92387000   19.35116000    0.64414000      0.486598    0.21824200    0.43908600
Se   15.78448000   18.86084000    8.48342000      0.103473   -0.21913200    0.24824700
Se    1.65327000    2.25053000    1.89868000     -0.930209    0.47528000    0.32122300
Se    5.22375000    7.92559000   10.05560000      1.376930   -0.88046300   -0.94678200
Se    6.17353000   10.36510000    2.24458000     -0.483837   -0.02357800   -0.92263800
Se    4.70492000   11.97435000    9.97189000     -0.250386   -0.35473000    0.08746700
Se    2.97203000   15.48787000    1.34597000      0.239777    0.97094300   -0.62385000
Se    2.12409000   13.11127000   12.64027000      0.574238    0.52974200    1.01984700
Se    3.71536000   21.80088000   18.53050000     -0.913739   -0.85258900    0.67481900
Se    5.88968000   20.25937000   10.27706000     -0.567108    1.13532200   -0.20815200
Se   12.66681000    5.30780000    2.18142000     -0.553869    0.01512000   -0.10883300
Se    6.45043000    5.42912000    7.43938000      0.352773   -0.33347600    0.54719800
Se   11.61565000   10.55419000    1.03544000      0.236746    1.37473900    1.10622900
Se    6.69596000   10.65901000   10.23779000      0.471100    0.31009900    0.11301900
Se   10.19492000   15.63466000    1.92100000     -0.307618    0.59217900    0.02021100
Se   12.93011000   12.72712000   12.92429000     -0.184935    0.58047300    0.76926500
Se   10.29365000   21.44662000   18.10105000      0.387284   -0.02665600   -0.00720800
Se    8.29596000   22.23711000   12.33767000      0.794646   -0.42226800    0.01870600
Se   14.96376000    4.81448000    0.28786000      0.484372   -0.22373200   -0.05044100
Se   17.43168000    6.91044000    8.51455000     -1.648888   -1.22987800    1.48441700
Se   14.85567000   10.57998000   18.73172000      0.432143   -0.19839500    0.11346200
Se   15.12022000   11.86640000   12.63986000      0.229862   -0.52866700   -0.54835400
Se   18.11818000   15.29159000    3.05013000     -0.782753   -0.43852400   -0.20289100
Se   16.25430000   11.51773000   10.00724000     -0.536376   -0.76750300   -0.40283900
Se   18.06518000    0.06049000    0.67390000     -0.973864   -0.34854700    0.67127900
Se   15.05336000   21.08406000    7.65461000     -0.422657    0.07922100   -0.52855500
Se   22.03851000    4.53272000    1.00754000     -0.573610    0.55466400    0.72347500
Se   20.84599000    4.02028000   11.41808000      0.002242   -0.65735600    0.19720400
Se   20.83463000    6.76202000    0.85811000     -0.189380   -1.09235300    0.05633300
Se   21.15149000   10.65019000   11.48500000     -0.414717   -0.05120000   -0.27077800
Se   19.14599000   14.77158000   18.32270000     -0.045617    0.13392300   -0.15045600
Se   20.84269000   16.89529000   12.44620000      0.253845   -0.49161200    0.06534500
Se   21.11202000   22.54322000    4.32525000      0.347245    0.02060800   -0.58021300
Se   17.22066000   20.56562000   11.04458000      0.362720    0.93091400    0.29997400
Se    2.84417000    5.11473000    8.32452000      0.541264   -0.17268700    0.70936900
Se   21.72595000    3.52957000   16.96528000     -0.071364   -0.83587900    1.33596700
Se    2.77903000    9.19274000    8.39757000     -0.396544    0.74217300   -0.03142400
Se    1.55151000   10.12942000   16.78519000     -0.053988   -0.87355700    0.55452100
Se    5.16558000   17.58512000    8.02149000     -1.714053    0.98743900    1.34130400
Se    0.30522000   17.99028000   15.74235000     -0.155660    0.30927900   -0.14625800
Se    1.12550000   19.14925000   12.92774000      0.232355    0.37033900    0.47385200
Se    1.29850000   20.59035000   17.05079000     -0.344892    0.11548100    0.31778300
Se    5.24273000    3.68475000    4.89754000      0.490638    0.12206400   -0.04338800
Se    5.25934000    5.98048000   17.78140000     -1.850828    0.35250400    0.70175700
Se    5.68003000    9.41575000    5.57877000     -0.918565   -0.56837500    0.39858700
Se    4.06528000    6.96843000   15.79301000     -0.068215   -0.34713600    0.25535000
Se    6.83791000   14.64794000   11.42415000     -0.294344    0.25424200    0.25330600
Se    6.26528000   16.88449000   18.46279000      0.452780    0.03424200   -0.64778500
Se    9.81150000   18.24975000    6.36168000      0.002781    0.06753900   -0.00167200
Se    5.94138000   19.97116000   18.36511000      0.189489   -0.34919600   -1.33663000
Se   10.01988000    2.72541000   10.03441000     -0.173189    0.48961300    1.11222700
Se   12.34834000    3.69111000   16.64110000      0.570908    0.26749100    0.21744600
Se   13.28452000    7.11064000    6.60818000      0.410509    0.72105400    0.65302300
Se   13.70700000   10.78836000   16.12394000     -0.054969   -0.08372400    0.62879600
Se   11.00652000   14.84568000    7.82721000      0.756887    0.06296800    0.17782900
Se   14.34275000   15.81216000   17.66233000      0.053979    0.82608500   -0.56672900
Se   12.06009000    0.58846000    7.80776000     -0.518406    0.35108900   -0.88962600
Se   14.60232000   20.20706000   17.57912000      0.033807    0.53520400   -0.13203600
Se   13.74040000    4.57001000   10.41672000      0.554024   -0.66742300   -0.19501700
Se   20.30103000    2.14155000   15.55794000     -0.010367   -0.36445300   -0.11992000
Se   18.95134000   10.03148000   10.77224000      0.080165    0.35075200   -0.78633800
Se   17.82466000   10.94940000   15.65167000     -1.047264   -0.45541300    0.50359700
Se   14.32909000   16.52777000    6.51937000     -0.173479   -0.79096000    1.10105600
Se   19.98009000   13.47125000   14.75633000      0.303519   -0.33342300    0.20910600
Se   19.05991000   21.29584000    7.69427000      0.281866   -0.61902100   -0.15944600
Se   18.90737000   18.74571000    3.18555000      0.315435    0.60171000   -0.99142300
Se    5.46303000    1.17746000    7.86460000     -0.039058   -0.07041400    0.28698400
Se    3.88548000    2.81152000   17.60357000     -0.687589   -0.69158500    0.92064300
Se    8.05075000    9.82629000    7.57943000      0.203189   -0.51680600    0.14733900
Se    4.22972000    9.76027000   18.60481000      0.309555   -0.02485400   -0.30431600
Se    6.76886000   17.35592000    6.08485000     -0.317761    0.28411100   -1.13400500
Se    4.88136000   12.31875000   18.46345000      0.019671    0.25580400    0.27302300
Se    1.67114000   19.62129000   10.53698000     -0.108653    0.86971300    0.14224200
Se    2.36385000   19.09714000    1.79791000      0.197479   -0.25242400   -0.00683500
Se    8.82818000   21.90195000    8.65359000     -1.210411    0.37177200   -0.10831900
Se    8.76717000    3.32431000    0.85318000      0.103384    0.21087100    0.97323300
Se    9.83317000    5.58816000    8.46791000      0.013152    0.12477600    0.14954300
Se    8.88298000    7.01383000   18.83662000     -0.146166   -0.50612300   -0.65402000
Se    8.61908000   11.94175000    5.38382000      0.736666    1.16629000    1.55170600
Se    7.67377000   14.93672000   17.97833000     -0.060701   -0.47190500   -0.18605400
Se   11.93642000   21.65954000   10.76928000     -0.338628    0.06015800    0.19736900
Se   11.05760000   13.72721000   17.31542000     -0.485274    0.01677900   -0.07132100
Se   15.72771000    0.79579000    7.64463000      0.324722    0.31191100   -0.00193000
Se   16.56298000    3.24543000    1.07880000      0.037879    0.00893700   -0.42269500
Se   15.67554000    4.62866000    7.40811000      0.252444    0.33338500   -0.32210900
Se   15.07663000    7.01511000   16.40930000     -0.576498   -0.51945000   -1.33064700
Se   15.96476000    9.29944000    9.17472000     -0.038813    0.87707300    0.04691200
Se   14.55044000   12.97702000   18.77933000     -0.775898    0.48548700    0.41326100
Se   13.42521000   18.94773000    5.53678000      0.059038   -0.23034500   -0.20937400
Se   17.53511000   17.76233000    0.19806000     -0.786774    0.01334700   -0.29846800
Se   20.58195000    1.84956000    7.86014000      0.130184    0.49663400   -0.68499300
Se    0.50288000    0.79362000   13.71982000      0.564056   -0.16138200    0.69826300
Se   20.51905000    7.30899000    9.28739000     -0.767516    0.97274800    0.69600400
Se   21.62904000    7.64235000   16.66400000      0.081174    0.26360100    0.48210700
Se   21.43806000   11.13019000    7.11542000     -0.054066   -0.06740900    0.00512700
Se   20.11703000   11.22033000   17.11905000      0.136228    0.32351000   -0.06969200
Se   19.00058000   17.27952000    8.01658000      0.280517   -0.14647000   -0.07229000
Se   19.94088000   17.17352000   16.16752000      0.214418   -0.82123400   -0.46803600
Se    3.70484000    0.01280000   12.45046000      0.090599    0.10631000   -0.25505500
Se    2.93222000    1.99005000   15.22274000     -0.126686   -0.18154200   -0.01504400
Se    0.00878000    7.55343000    8.19258000      0.936361    0.39857100   -0.60253600
Se    0.82605000    9.99302000   14.41213000      0.272690   -0.01641300   -0.26323800
Se    4.01342000   14.05408000    4.47268000     -1.885675    2.26049800    0.82418500
Se    1.88478000   13.91202000   16.91125000      0.264574   -0.15122200   -0.48009500
Se    0.67604000   16.96783000    8.47831000      0.051356    0.19221600    0.13054800
Se    2.61225000   20.36857000   14.28645000     -0.102421   -0.30807900    0.07644500
Se    6.90721000    1.10613000    3.30944000     -0.292303    0.09862600    1.52603000
Se    7.54940000    0.23989000    1.40625000      0.754030   -0.93324200   -1.04866500
Se    9.31924000    8.16268000    6.33591000      0.330562   -0.02340500    1.17258200
Se    4.32779000    4.41330000   14.73531000     -0.139785    0.68709100    0.73060700
Se    5.22248000   12.21426000    4.73387000      0.949409   -1.87804600    0.75607600
Se    9.66076000   13.73156000   13.67970000      0.211557    0.18651300    0.05357800
Se    8.04272000   17.52447000    4.01603000      1.306360    0.75162200   -0.92263400
Se    7.19674000   16.78147000   14.27930000      0.695792   -0.09664400   -0.08241100
Se   13.93964000    0.66416000    3.73798000      0.184094    0.12443200    0.51482200
Se   13.72403000   22.33851000   15.82838000     -0.128566    0.21589500    0.50917100
Se   12.11966000    9.85746000    4.95871000     -0.355362    0.67568600   -0.08566200
Se   11.89153000    6.59041000   15.22614000     -0.132402   -0.09995300   -1.24497300
Se   14.02214000   12.67116000    5.65783000     -0.489857    0.46055200    0.20097900
Se   13.91229000   14.36240000   14.91840000     -0.506393   -0.55096000   -0.71061600
Se   11.91494000   18.87409000    7.45622000      0.085171   -0.00401700    0.47337900
Se   12.00499000   18.55506000    1.12170000      0.829075   -0.07558300   -0.14867200
Se   19.86460000    1.82415000    5.35111000     -0.245114    1.02463200   -0.34259900
Se   18.03378000    0.65577000   16.25251000     -0.162290   -0.20486400    0.25714200
Se   19.50694000    5.48160000    6.34311000      0.158560   -0.55805100   -0.29333600
Se   19.02191000    5.94818000   16.55713000     -0.191757    0.49710100    0.15623500
Se   19.23607000   11.79250000    4.00928000     -0.209953   -0.35288900    0.35185400
Se   17.25418000   14.31287000   12.74235000      0.619042    0.27054700    0.10414700
Se   17.40219000   18.46494000    4.92633000     -0.699038   -0.32058000    0.78062800
Se   17.59446000   19.30988000   15.82517000     -0.051797    1.52533900   -0.40019400
Se    2.25952000    6.74204000    5.79611000      0.440624    0.56373400   -0.29726200
Se    1.63636000    6.42557000   13.64744000      0.845518    0.70489100   -0.06789700
Se    1.87396000   11.74615000    5.25713000     -1.490500   -0.05780200   -0.96658200
Se    3.85736000   10.70618000   14.93828000     -0.205856   -0.29434900    0.45198900
Se    5.88415000   13.83311000    7.57799000      0.873787    0.27366500    0.39260000
Se    2.99664000   17.37506000   17.85486000      0.767901   -0.04074400    0.67474500
Se    1.73991000   19.72957000    8.00829000     -0.116528    0.54672900   -1.37859200
Se    6.60730000   21.19178000   15.03865000      0.854792    1.09655700   -0.29578400
Se    9.39890000    0.57500000    5.04248000     -0.052397   -0.19347900   -0.28913000
Se    7.34933000    1.89231000   17.41395000     -0.131974    0.25135700   -0.01821700
Se   12.92731000   12.11995000    9.91104000      0.334187   -0.30863900   -0.45081200
Se    9.85782000   10.32514000   17.64725000      0.562053   -0.61033900   -2.25911700
Se    8.29096000   13.51893000    8.50984000     -0.286551   -0.31750400   -1.02402800
Se   11.60378000   17.35831000   14.31138000      0.311420   -0.93243700   -0.35679400
Se   12.46185000   20.91253000    4.64785000     -0.941440    0.25612000   -0.56416500
Se   10.16874000   17.70168000   17.89083000      1.462455    0.00572300    0.38926000
Se   10.80768000    4.42756000    6.71297000      0.203473   -0.26585100    0.36494600
Se   18.05181000    3.81940000   16.58324000     -0.715887   -0.29779100    0.35295800
Se   16.95470000    8.82832000    5.41365000     -0.075269   -0.15586100   -0.33979100
Se   16.54533000    7.92102000   12.82123000      0.031452    1.04254000    1.30636500
Se   17.49093000   11.40500000    5.55690000      0.274151    0.04381400   -0.01212000
Se   15.09573000   17.42936000   15.79685000      0.043809   -0.31962000    0.26079800
Se   16.51297000    2.21384000    5.00594000     -1.563733   -0.76475500   -0.35768400
Se   18.46264000    2.96979000   13.20843000     -0.610963   -0.30282100   -0.06093100
Se    1.29854000    2.88082000    5.25998000     -0.310408    0.59789400    0.09058300
Se   22.30669000    5.15389000   15.49346000      1.284200    0.77349500   -0.20457700
Se   18.84261000   13.01976000    8.49084000     -0.086153    1.49733200    0.39531100
Se   22.28881000   12.97899000   13.69649000     -0.108570    0.25321300   -0.15495900
Se   21.54065000   14.84073000    5.92862000     -0.878972    0.13709500    0.04175200
Se   20.19458000   19.08368000   13.35710000      0.020973    0.02413500    0.28803600
Se   20.40919000   19.38363000    8.14259000     -0.505543    0.37335400    0.10490400
Se   20.93399000   20.57384000   15.88475000      0.982202    1.01079200    0.26076300
Se    3.63068000    0.36120000    4.01756000      0.327752    0.24698400    0.57124800
Se    7.27957000    2.22931000   14.89643000      0.198160    0.41160000    0.48981200
Se    2.23394000    6.16793000    0.84193000      0.615517    0.61980900   -0.07039500
Se    4.44018000    8.07429000   12.22287000      0.555310   -0.47487400    1.40642900
Se    1.97590000   13.52035000    1.72708000     -1.454409   -0.40841400    0.13064400
Se    5.05012000   14.38985000   15.27479000      1.474577    0.79361900   -0.39016800
Se    5.42376000   17.83080000    2.34599000     -0.716697   -0.33483800    0.54449000
Se    5.01101000   17.33173000   12.02331000      0.384730    0.20464700    0.37542500
Se   10.88976000    0.71175000    2.66746000     -1.435217    0.55052600    0.34663100
Se   10.62010000    1.00139000   16.86247000      0.860883   -1.01674200   -0.08395000
Se   10.13339000    7.32586000    2.48358000     -1.559881   -1.07158800    0.89171500
Se    7.20621000    8.19008000   15.68799000      0.138323   -0.26137000    0.63326700
Se   10.44796000   11.22282000    3.38939000      0.722417   -0.93514900   -0.12951200
Se    9.66135000   10.78913000   12.56290000     -0.409659    0.19987300    0.15246500
Se    9.62114000   19.98041000    1.83382000     -0.037257    0.02111800    0.57899500
Se   14.82660000   18.43444000   12.59364000      0.280028   -0.89995600    0.75309200
Se   14.32961000    3.31884000    5.80755000      0.166261   -0.18831000    0.09560200
Se   15.30213000    1.50410000   15.78584000      0.303737   -0.33230700    0.06189400
Se   15.61796000    5.84214000    4.17744000      0.306710   -0.73059200    1.21609200
Se   13.15121000    8.64113000   10.92005000     -0.331329   -0.90989200    0.17557200
Se   15.70763000   11.11061000    2.28556000      0.129797    0.06950100    0.49879000
Se   16.88843000   14.02467000   16.43136000     -0.127179   -0.38632400    0.18624100
Se   15.58419000   15.76726000    3.82314000     -0.371589   -0.30605000   -0.50108600
Se   14.34407000   21.87513000   12.57984000      0.330187    0.01992600    0.78616800
Se    0.59715000   21.48369000    6.26466000     -0.173831   -0.12827500    0.39045300
Se   19.60346000    0.13306000   13.33412000     -0.367528   -0.48501600   -0.48245400
Se   22.43224000    7.31408000    3.47110000     -0.222145   -0.28832900   -0.06585000
Se   19.26413000    8.38346000   13.98171000      1.560597   -1.95465500    1.25360900
Se    1.20661000   14.06103000    6.13990000      0.740264   -0.59294500    0.04582900
Se    0.43109000   15.96092000   14.59311000     -0.294721   -0.93340500    0.19095400
Se   22.30141000   18.27448000    4.38041000     -5.216995   -1.05221500   -0.64120800
Se   21.78752000   21.46585000   10.14019000      0.010652   -0.38478100    1.13104800
Se    3.51891000    5.08402000    3.27329000     -0.548227    0.08341200   -0.32268400
Se    1.94971000    3.44184000   11.85959000     -1.308610    0.45133700    0.29150500
Se   21.84257000   10.96494000    2.16429000     -0.222495   -0.49416000    0.24355300
Se    1.77189000   10.23603000   11.56881000     -0.855747   -0.73828300    0.51006100
Se   22.04783000   16.28992000   18.60945000      0.389912    0.15920300    0.22967900
Se    3.36959000   15.81365000   13.02334000     -0.477687   -0.34415000   -0.75988500
Se    1.71512000   21.31346000    2.35046000      0.480012   -0.03035600   -0.23445300
Se    5.28217000   19.43652000   15.44957000     -0.545297   -0.89808400    0.39290500
Se    8.96317000    4.38124000    4.53101000      0.030481   -0.22044700   -0.02452700
Se    9.67049000    2.82163000   14.31087000      0.129610   -0.36717600   -0.15175100
Se    6.13784000    6.71862000    4.63057000      0.391667   -0.26655200   -0.54187500
Se    8.11594000   11.87641000   15.26180000      1.425320   -0.31797700    1.56023400
Se    5.77056000   14.55020000    2.32424000      0.572683    0.36542500   -0.50134000
Se   10.25410000   14.64292000   11.32392000     -0.009876    0.68822600    0.47731700
Se    5.97987000   20.99351000    5.89497000     -0.393807   -0.36608000    0.23054900
Se    9.79478000   20.00354000   14.93141000     -0.020167    0.21962400   -0.25739800
Se   13.45850000    2.77319000    2.40668000      0.757494   -0.64173700    0.19466300
Se   11.41556000    4.88829000   11.67590000      0.109847    0.74016900    0.43785000
Se   13.77918000    7.88289000    2.64426000     -0.144898    0.47999200    0.04753700
Se   10.92997000    9.20835000   14.18832000      0.161678    0.25801400    0.07609700
Se    9.09106000   14.05131000    4.15257000     -0.015974   -0.04405000   -0.08982600
Se   14.90810000   14.60150000    9.67318000     -0.263387    0.19383300    0.34153400
Se   15.02137000   20.05919000    2.19097000      0.688321    0.23637400    0.20337100
Se   13.35516000   20.11326000   14.10788000      0.047836   -0.02717300   -0.44783600
Se   18.68274000    5.56614000    0.88062000     -0.088040    0.87063300    0.04858600
Se   15.04248000    4.52075000   13.96772000     -0.605300    0.27350800   -0.02514500
Se   18.36018000    8.04046000    3.63770000      0.590934    0.10390300   -0.34083000
Se   21.03603000   14.26095000   11.29609000      0.219507   -0.00731400    0.47033400
Se   20.62201000   14.90733000    2.81764000      0.754573   -0.24430800    0.52479500
Se   17.88092000   17.35475000   11.62107000      0.007549    0.07925300   -0.27815100
Se   17.12090000   22.26483000    4.94007000      0.427168   -1.12945400   -0.67749100
Se   17.12029000    1.57333000   10.57289000     -0.933137    0.21371600    0.01188800
