384
22.54784000 22.54784000 18.93360000
Ge    5.30261000    5.24006000    9.74823000     -0.451317   -0.02816300   -1.03507900
Ge    4.42751000    7.55597000    1.12691000     -0.163224   -0.34800600   -0.00506000
Ge    3.35736000   11.31898000    7.05559000      1.014363   -0.28386600    0.55484200
Ge    6.59002000   10.30792000   17.27484000     -0.873592    0.31839600    0.00160400
Ge    4.45077000   14.41992000   10.85879000      0.346515    0.26431100   -0.09159900
Ge    8.51684000   17.71083000    0.94888000      0.426353   -0.29695900    0.44933600
Ge    7.32038000   19.19331000    8.10287000     -0.835720    0.77927600   -0.18959600
Ge    4.97004000    0.59202000   16.98397000      0.120108    0.80553000   -0.94121000
Ge    7.95621000    7.56581000   10.22648000      0.361762    0.06446100   -0.25143300
Ge   11.36282000    5.54015000   18.80126000     -0.755464   -1.44994700   -0.05601900
Ge   11.66882000    8.43360000    8.86224000      0.405712   -0.12736600    0.10810900
Ge    9.77428000   12.23253000    0.17118000      0.163677    0.35173500    0.18367400
Ge   10.23473000   17.15716000    9.25385000      0.012066   -0.59791900   -0.12926000
Ge   12.02774000   15.27981000    0.06043000      0.112470    0.41392900    0.28064600
Ge    9.90101000    0.32304000   10.51143000     -0.417147   -0.69528500    0.62000600
Ge   14.87386000   22.02559000    0.56244000      0.162572   -0.37355800   -0.02468600
Ge   18.65535000    4.81748000    9.75465000     -0.278831    0.59009100    0.04464700
Ge   18.72015000    8.91964000   17.26230000     -0.288275   -0.51491600    0.08720900
Ge   18.70312000   14.90920000   10.75794000     -0.803941   -0.16870600    0.16149200
Ge   17.28311000   12.05641000   18.02211000      0.478117   -0.17283100   -0.29861600
Ge   13.09500000   15.87269000    8.69030000      0.785262   -0.24087900   -0.57977000
Ge   16.64136000   15.30928000    0.20671000      0.018302    0.16603100    0.21067100
Ge   16.27549000    3.94405000    9.71707000     -0.985931   -0.50265200    0.85658300
Ge   19.28074000    3.22313000    0.17425000     -0.516803   -0.09084800   -0.34294300
Ge    1.12352000    3.96173000    9.72173000      0.612759   -0.31598500   -1.57303700
Ge   21.02550000    4.10887000    3.64773000      1.190435   -0.45814000   -0.42728200
Ge    0.41761000   10.20561000    9.18369000     -0.049052    0.14502600   -0.31854500
Ge   22.00820000    9.78066000   18.50826000     -0.219860    0.08387000   -1.27531300
Ge   21.10564000   15.47673000    8.41901000     -1.094514    0.18668300   -0.42149000
Ge    4.17506000   14.84700000   17.62782000     -0.350340   -0.28875300    0.82816900
Ge   19.43867000   22.46935000   10.82458000     -0.635367    0.13780000   -0.04729800
Ge   21.97443000   20.55368000    2.71683000     -0.793352   -0.64861000   -0.55847400
Ge    4.19380000    7.53721000    7.31844000      0.187953   -0.78023800   -0.69555200
Ge    1.60974000    7.30918000   17.38614000      0.158166    0.52039800   -0.27709800
Ge   20.83597000    9.32561000    3.75000000     -0.753039    0.35305100    0.29187200
Ge    3.18217000   13.06144000   15.05268000     -0.951364   -0.32510500   -0.76609400
Ge    4.53369000   18.56824000    4.75901000      0.838597    1.00679200   -0.18475500
Ge    0.99162000   18.65619000   18.65915000     -1.106258   -0.14962400    0.11301400
Ge    3.97747000   18.66887000   10.41887000     -0.208859    0.00629800   -1.27899200
Ge    1.87557000    1.07025000   18.74924000      0.283726   -0.16436700   -1.08847500
Ge    9.45597000    2.07931000    7.78954000      1.115733   -0.77137500   -0.94500000
Ge    7.48330000    5.76230000   17.13145000      1.137983    0.05772000   -0.37828000
Ge    7.77794000   10.39308000    3.88191000      0.864426   -1.38695500    0.01164300
Ge    9.79355000    7.87506000   16.36352000     -0.167988    0.39437600    0.45146700
Ge    7.00431000   15.94754000    8.27217000      0.336952   -0.36540800    0.86836000
Ge    9.11187000   15.50377000   15.79100000      0.808322   -0.99105000   -0.35855600
Ge   10.25872000   21.06157000    6.79210000      0.849790    0.55344000   -0.59299000
Ge   10.51724000   22.47332000   14.25385000     -0.047482    0.13697600   -0.08965300
Ge   11.82858000    7.42822000    4.56294000      0.386133    0.38788600    0.25749400
Ge   15.26359000    4.21048000   16.49700000     -0.353613    0.28417400   -0.11715000
Ge   14.60675000    9.38164000    6.54016000     -1.127953   -0.12694000    0.63736000
Ge   15.52735000   12.26230000   15.08720000     -0.359274    0.87826400    0.10267000
Ge   12.34315000   15.12930000    5.68337000      0.410134   -0.42416700   -0.60402400
Ge   14.46901000   18.36852000    0.27938000      0.032049   -0.38261600    0.64313700
Ge   14.76945000    0.04682000    9.73221000     -0.294909    0.51411500    0.69192700
Ge   16.88728000   21.41624000   13.67759000      0.142992    0.40966300   -0.55288800
Ge   21.36359000    5.02157000    8.95643000     -0.280338   -0.65839900   -0.64176700
Ge   19.95676000    5.69355000   14.19759000     -0.564332   -0.21553400   -0.12660200
Ge   19.09830000   10.78361000    7.76080000     -0.084503   -1.37730800   -0.21411300
Ge   21.38256000   14.79858000   16.52260000     -0.020585    0.68485300   -0.23911600
Ge   18.79992000   16.39230000    5.31224000      0.122546   -0.05334900    0.63770800
Ge   17.44684000   17.00906000   16.64908000     -0.186191    0.34559300    0.44579400
Ge    0.27781000    1.43217000    6.69171000     -0.431076   -0.96411800    0.85716800
Ge   18.99706000   21.05863000   17.46935000     -0.641183   -0.31388100   -0.34608800
Ge    7.49940000    2.87804000    6.34826000     -1.199302    0.66680200   -0.30892400
Ge    3.95645000    2.76590000   12.86709000      1.228090   -0.54136600    0.16530200
Ge   22.48747000    9.05494000    5.68479000      0.458336    0.44171600    1.00235200
Ge    2.10360000    7.50366000   11.34226000     -0.428279    0.06909900   -0.25539200
Ge    0.71450000   15.67030000    4.14056000      0.086184    0.02246700   -0.39598300
Ge    2.88825000   17.62499000   15.55366000     -0.402129    0.39293400   -1.20794800
Ge    3.97671000   22.30807000    9.96023000      0.016584   -0.30528000   -0.69202600
Ge    8.18994000   17.79858000   16.51445000     -1.754052    1.59046300   -0.56055100
Ge    7.13050000    3.69045000    2.87041000     -0.596850   -0.25432300    0.16755300
Ge    9.61752000    3.26083000   17.53096000     -0.409995    0.19656900   -0.74054900
Ge    8.22484000    7.97606000    4.24413000      0.055825   -0.07168400   -0.72146400
Ge    6.92681000    9.51313000   13.59991000      0.487050    0.10730000   -0.86326900
Ge    6.36165000   14.86743000    4.88369000      0.612287   -0.29866100   -0.00723200
Ge   11.24193000   11.78350000   15.34802000      0.112134    0.14386100   -0.13045200
Ge    7.77052000   20.55848000    3.63947000     -0.045709   -0.10152400    0.33281700
Ge    9.23609000   17.06768000   12.59891000      0.176698   -1.15188500    0.18246000
Ge   12.16510000    1.68428000    5.45698000     -0.007657    0.01166800   -0.00245400
Ge   12.53991000    4.15444000   14.17673000      0.498563    0.46640900    0.13225100
Ge   17.55462000    4.26283000    5.13285000      0.535213    2.26710200    0.13271800
Ge   13.89986000    8.96000000   14.46796000     -0.102598   -0.64711800   -0.17669200
Ge   14.74839000   13.31634000    3.57013000      1.116181   -0.02964400   -0.33362300
Ge   13.29476000   16.06287000   12.32734000      0.141983    0.03127100    0.72775600
Ge   10.77147000   18.55708000    3.95051000      0.272836    0.13484200   -0.30536600
Ge   11.92624000   19.73875000   16.56359000     -0.725038   -0.11715700    0.44860500
Ge   22.17572000    5.17111000    5.81122000      0.165955   -0.01817300   -0.08825900
Ge   22.29506000    3.28595000   13.62589000      0.027978   -0.39332300   -0.64707100
Ge   18.87248000    8.01822000    7.07524000      1.361758    0.52119400   -0.72329200
Ge   18.06586000   10.14242000   13.22026000     -2.094988    1.86574000   -1.78518700
Ge   19.80816000   16.89965000    1.24201000      0.308701    0.19624500   -0.66696200
Ge   19.24554000   15.69825000   14.07404000     -0.531108    0.34667700   -0.47966700
Ge   19.32471000   20.80885000    5.04702000     -0.214801   -0.17746300    1.06938200
Ge   21.74859000   21.32131000   13.01381000     -0.117801   -0.41661100   -0.34446900
Ge    3.78810000    2.68687000    3.09026000      0.619957   -0.65841200    0.07853900
Ge    6.09291000    0.40076000   13.24412000     -0.607951    0.43953800    0.11614600
Ge    3.78983000    7.85611000    4.05273000     -0.208957    0.71793900   -0.27560900
Ge    6.92604000    4.84232000   14.45966000     -0.343242   -0.26953000    0.64620900
Ge    4.15743000   12.48774000    2.24104000      1.178207   -0.73812300   -0.82426000
Ge    4.10062000   10.67483000   12.20908000      0.022520    0.45581900    0.23311000
Ge    3.49579000    0.09809000    6.72650000      0.613894   -0.22275900   -0.43781900
Ge    7.07446000   19.15629000   12.42023000     -0.406583    0.74756500    0.40929000
Ge   10.68266000    3.35374000    2.56682000     -0.345214    0.26816700    0.31860100
Ge    8.99323000    4.59999000   12.55929000     -0.190883   -0.21060300   -0.16175100
Ge   11.79152000    8.22692000    1.11676000      0.950200    1.02567300    1.32919100
Ge   10.84856000    7.42365000   12.30920000      0.678209    0.17041600   -0.31980600
Ge    8.36611000   14.02720000    1.59196000     -0.499329   -0.10844600    0.32206900
Ge    8.15641000   12.61998000   10.87245000      0.332342   -0.00325100   -0.00462500
Ge   11.99345000   21.40592000    1.36719000      0.027217   -0.98302800   -0.58526500
Ge   11.10763000   19.00823000   12.54550000      0.186322    1.17834700    0.62993900
Ge   22.17924000    0.61928000   16.38518000      0.663771   -1.15804700   -0.10560800
Ge   12.60330000    2.03786000   10.14668000      0.504061    0.10448500    0.51506800
Ge   16.16424000    6.64708000    2.07308000      0.010913    0.32463900   -0.73742500
Ge   15.50296000    7.00512000   11.01250000     -1.263964    0.02770100   -1.39239900
Ge   18.08798000   11.73750000    1.67783000      0.560591   -0.73158700    0.18912800
Ge   16.88317000   16.88579000    9.48818000     -0.628449   -0.45645000   -0.39523700
Ge   17.47177000   21.22423000    2.77322000     -0.351928   -0.34829800   -1.29298100
Ge   14.50193000   19.98925000   10.78000000      0.258252   -0.28624600   -0.60851300
Ge   21.71637000    1.65261000    2.34044000      0.035524    0.27585900   -0.21210400
Ge   21.32321000    1.65720000   10.20850000      0.777172   -0.24258800    0.05916500
Ge    0.67428000    8.79281000    1.58219000      1.068059   -0.47303700    0.96813200
Ge   21.42147000    8.89870000   13.16466000      1.258135   -0.27889900    0.14793900
Ge   20.19325000   13.32007000    0.94023000      0.551839   -1.08442300   -0.14804600
Ge    0.64376000   14.50074000    9.37326000     -0.079985   -0.51950200    0.23564900
Ge    1.80347000   18.78367000    4.65968000      3.322109    1.56468000    0.52641200
Ge   19.59024000   19.38854000   10.95920000     -0.733110   -0.22850100   -0.69003200
Se   21.10206000    0.04160000    0.54109000      0.628619    0.60237500    0.25074000
Se    1.42631000    1.23461000    8.82470000      0.191734    0.85948100    0.73899400
Se    2.52009000    9.88277000    3.01533000      0.119287   -0.11235700   -0.26307100
Se   22.16750000    6.39701000   12.44648000     -0.451142    1.12956300   -0.14681300
Se   21.98061000   12.51834000   17.84381000      0.392848    0.74566400    0.67099300
Se    2.18174000   12.70438000    8.96126000      0.149857   -0.52641100    0.03202100
Se    3.09904000   16.71380000    5.31840000     -1.065327   -0.66789800    0.29014600
Se    1.50792000   16.18186000   10.84001000      0.683341    0.82123800   -0.08744200
Se    5.10132000    2.32596000    1.06784000     -0.053594    0.53507600   -0.36669300
Se    6.09187000    4.61891000   12.12285000      0.032058   -0.52272900   -1.26928900
Se    6.73738000    6.03029000    2.11697000     -0.498653    0.46103900    0.02168900
Se    8.11405000    7.28079000   12.73359000      0.033937    0.28263200   -0.29943900
Se    7.96926000   10.11286000    0.40840000     -0.012404    0.02315500    0.86644100
Se    6.24378000   12.18753000   14.23666000     -1.376104    0.23066000   -1.43025800
Se    6.01065000   20.03659000    1.70239000     -0.176690    0.78288500    1.72752500
Se    8.71388000   18.74988000   10.50327000     -0.012241   -0.02844500    0.01106000
Se   12.14071000    1.76642000    0.66521000      0.109671    0.00160000   -0.42684000
Se   12.57732000    1.94684000   13.19500000     -0.396226   -0.64995500   -0.34987800
Se   12.35062000    7.53768000   17.97754000      0.988270    0.41941100   -1.48699900
Se    9.69785000    9.86858000   10.37857000     -0.152922   -1.00709300   -0.53361100
Se   13.00900000   13.42065000    1.93053000     -0.366404   -0.17588400   -1.35247500
Se   12.58479000   10.72821000    7.98421000     -0.035454    0.37936000    0.11184900
Se   13.74038000   16.44543000    2.42436000      0.478776    0.72669900   -0.05268500
Se   12.52504000   17.63047000   10.47832000     -0.465406    0.29680000   -0.58845500
Se   18.82575000    3.56315000    2.95018000     -0.538626   -0.26126500    0.24552800
Se   16.13076000    1.72113000   13.01653000      1.001703   -0.32226400   -0.21117900
Se   16.40704000    7.75364000   18.09882000     -0.075442    0.71917900   -0.04628900
Se   17.62544000    5.09890000   12.75524000      0.355881    0.40343800   -0.52549700
Se   18.29451000    9.16218000    0.86603000      0.503953    0.95911800    0.02354900
Se   17.40088000   14.38682000    7.09318000      0.318414   -0.13013000   -0.14240600
Se   20.94910000   19.34763000    0.61234000      0.478236    0.29715400    0.61216400
Se   15.80088000   18.87946000    8.41192000      0.164937   -0.37949400    0.35912500
Se    1.69599000    2.22581000    1.89890000     -1.503213    0.23026800   -0.14558700
Se    5.27132000    7.91887000   10.05380000      1.059972   -0.73231500   -0.78694100
Se    6.24377000   10.36864000    2.25505000     -1.210402    0.00553900   -1.68954200
Se    4.71542000   12.01066000    9.98682000     -0.127270   -0.63295000   -0.04512400
Se    2.95991000   15.52037000    1.29570000      0.223341    0.70896700   -0.46024400
Se    2.16283000   13.09734000   12.61993000      0.351399    0.44564800    1.00711700
Se    3.77435000   21.78853000   18.54901000     -0.903412   -0.65188900    0.38969500
Se    5.83014000   20.29177000   10.28628000     -0.456181    0.63989500   -0.09234200
Se   12.68557000    5.26401000    2.19749000     -0.573274    0.21847500   -0.06690200
Se    6.49140000    5.43531000    7.40920000      0.323310   -0.42062700    0.60385100
Se   11.65603000   10.59402000    1.00728000      0.224740    1.28458300    1.24571100
Se    6.73037000   10.65182000   10.23724000      0.103480    0.38567100   -0.01291800
Se   10.22433000   15.61666000    1.91863000     -0.277856    0.58855000    0.04177800
Se   12.90055000   12.75480000   12.97064000      0.220182    0.38885200    0.84375200
Se   10.30309000   21.38364000   18.09910000      0.563803    0.44303300   -0.08579200
Se    8.25011000   22.21801000   12.34562000      1.208984   -0.44121500   -0.33421500
Se   14.87521000    4.84960000    0.38146000      0.591175   -0.11683900   -0.17956600
Se   17.40919000    6.92282000    8.50691000     -1.452827   -1.18554500    1.29928200
Se   14.94506000   10.59558000   18.68839000      0.204149   -0.44833600    0.09090300
Se   15.13827000   11.85231000   12.64747000      0.015614   -0.19131100   -0.02802200
Se   18.12004000   15.33201000    3.07047000     -0.624768   -0.56750100   -0.34247600
Se   16.26790000   11.49364000   10.02076000     -0.474041   -0.94519300   -0.34139800
Se   18.12621000    0.09069000    0.63462000     -0.900095   -0.35649400    0.75170700
Se   15.06870000   21.12497000    7.64094000     -0.663129   -0.86668700   -0.69078800
Se   22.03049000    4.50561000    1.06589000     -0.289584    0.39871900    0.63646200
Se   20.85894000    4.01271000   11.37332000     -0.135384   -0.40541300    0.24191800
Se   20.83392000    6.70239000    0.82476000      0.177209   -0.68810500    0.03254600
Se   21.20917000   10.71291000   11.57145000     -1.111179   -0.17054700   -0.65262300
Se   19.12538000   14.77017000   18.31534000     -0.120201    0.18562000   -0.19022400
Se   20.85346000   16.90596000   12.44665000      0.403945   -0.74136700   -0.08035800
Se   21.20205000   22.52552000    4.28167000     -0.256832    0.06228500   -0.06253000
Se   17.25367000   20.58838000   11.00507000      0.304193    0.88435100    0.42902300
Se    2.84748000    5.10234000    8.39781000      0.697408    0.03929700    0.52438900
Se   21.67190000    3.48173000   16.99488000      0.458744   -0.06203600    1.09159800
Se    2.78932000    9.13550000    8.37241000     -0.673052    1.23259100    0.24020700
Se    1.58437000   10.18886000   16.77325000     -0.125265   -0.96203300    0.59129500
Se    5.14631000   17.60341000    8.00744000     -1.393415    0.64482200    1.42323300
Se    0.29973000   17.99732000   15.69860000      0.060620   -0.00757900   -0.31687200
Se    1.09008000   19.10064000   12.86788000      0.574268    0.46363700    0.85154900
Se    1.29682000   20.59253000   17.04839000     -0.332742    0.05897000    0.33104900
Se    5.23430000    3.65529000    4.89152000      0.562524    0.17954100    0.03776300
Se    5.23567000    5.92095000   17.78339000     -1.395696    0.55282200    0.49369400
Se    5.62913000    9.40087000    5.54414000     -0.837217   -0.53218300    0.54703900
Se    4.02076000    6.97593000   15.77502000     -0.062035   -0.45998800    0.44677700
Se    6.88777000   14.59362000   11.39590000     -0.961139    0.67422600    0.47360400
Se    6.29552000   16.93378000   18.41259000      0.621693   -0.21700600   -0.65199000
Se    9.74201000   18.21836000    6.32882000      0.619754    0.42348500    0.07869900
Se    5.90788000   20.02997000   18.37871000      0.206811   -0.50052500   -1.68197100
Se   10.00062000    2.72794000   10.06235000     -0.027074    0.44612500    0.81374700
Se   12.35713000    3.73213000   16.67138000      0.552306    0.23211700    0.29636800
Se   13.29374000    7.07915000    6.54905000      0.542194    0.72405700    0.86292700
Se   13.66773000   10.87542000   16.12894000      0.150542   -0.33077900    0.65809700
Se   10.98108000   14.83238000    7.82559000      0.775049    0.03342900    0.26153800
Se   14.35152000   15.79854000   17.55470000     -0.072680    0.71358400   -0.37437500
Se   12.10298000    0.64827000    7.77855000     -0.502276    0.02372500   -0.50837500
Se   14.60223000   20.27054000   17.62241000      0.030426    0.54781300   -0.20597500
Se   13.76104000    4.54162000   10.42534000      0.638983   -0.69466500   -0.27772800
Se   20.34527000    2.08962000   15.60172000     -0.691036   -0.22486900   -0.59255400
Se   18.93549000   10.01370000   10.76603000      0.578381    0.71638300   -0.37995600
Se   17.78580000   10.98227000   15.66512000     -0.879181   -0.59098700    0.46268900
Se   14.35172000   16.53186000    6.51894000     -0.459740   -0.93230200    0.99208800
Se   19.97934000   13.52905000   14.71738000      0.441102   -0.64508500    0.30813600
Se   19.07554000   21.30751000    7.66776000      0.240547   -0.51821600   -0.04688700
Se   18.93688000   18.74870000    3.17833000     -0.168623    0.57332300   -0.54292100
Se    5.43311000    1.15069000    7.90258000      0.143139   -0.00701100    0.24931300
Se    3.87290000    2.80729000   17.62058000     -0.804344   -0.54202600    1.09191400
Se    8.08261000    9.91111000    7.54098000      0.448916   -0.78847800   -0.03735000
Se    4.20326000    9.80125000   18.59706000      0.251526   -0.12715100   -0.38537100
Se    6.81745000   17.38270000    6.11585000     -0.700135   -0.01052100   -0.96323200
Se    4.83630000   12.29588000   18.42943000      0.169067    0.22269700    0.43541400
Se    1.63146000   19.58678000   10.56895000      0.104351    0.84771800   -0.05579200
Se    2.46492000   19.00134000    1.75818000     -0.224858    0.48013400    0.16405000
Se    8.79357000   21.91189000    8.65062000     -1.161192    0.35112400   -0.22608000
Se    8.73744000    3.33359000    0.87749000      0.136541    0.12691000    0.55211000
Se    9.82486000    5.60891000    8.50326000      0.215845   -0.23608300   -0.22590500
Se    8.82843000    7.00057000   18.87757000      0.027890   -0.39957300   -0.54165400
Se    8.54957000   11.93861000    5.36584000      0.747391    1.09364800    1.73850600
Se    7.68392000   14.89325000   17.95080000     -0.251139   -0.20303300   -0.02955400
Se   11.87921000   21.61227000   10.75570000     -0.163375    0.11877700    0.24451000
Se   11.03817000   13.68585000   17.30263000     -0.415074    0.11219600    0.08551200
Se   15.75941000    0.76300000    7.64616000      0.795917    1.11498000   -0.40617300
Se   16.51774000    3.26276000    1.05919000      0.125641   -0.00942900   -0.34518300
Se   15.70205000    4.59443000    7.43667000      0.222964    0.52743600   -0.42478300
Se   15.03788000    7.05107000   16.37098000     -0.191789   -0.33849400   -0.81424100
Se   15.94561000    9.24943000    9.20112000      0.014323    1.04610300    0.02115000
Se   14.53865000   12.94613000   18.76545000     -0.890228    0.76291100    0.50650700
Se   13.41695000   18.93287000    5.54814000      0.005564   -0.25384600   -0.13845500
Se   17.52479000   17.79236000    0.19024000     -0.871713   -0.17315000   -0.38897700
Se   20.52500000    1.85350000    7.92586000      0.213159    0.53156800   -0.70681900
Se    0.49725000    0.77518000   13.74886000      0.626946    0.09341600    0.62608700
Se   20.47721000    7.35752000    9.28804000     -0.563519    0.48743400    0.54739300
Se   21.69807000    7.68892000   16.68347000      0.006094    0.10986700    0.44907700
Se   21.41006000   11.17157000    7.05839000      0.170480   -0.14737600    0.09887500
Se   20.12503000   11.23610000   17.10534000      0.149197    0.10182800   -0.04478100
Se   18.95936000   17.27822000    8.03043000      0.565048   -0.08526800   -0.19807200
Se   19.94469000   17.15137000   16.16250000      0.295874   -0.73321500   -0.50414000
Se    3.75560000   22.52516000   12.47696000     -0.049123    0.04495300   -0.08351900
Se    2.92894000    1.94103000   15.22010000     -0.031761   -0.13891900    0.00492100
Se   22.51915000    7.55449000    8.19046000      0.880851    0.38591900   -0.48576000
Se    0.80071000   10.02543000   14.42371000      0.371562   -0.06533000   -0.10720900
Se    3.98787000   14.06967000    4.49645000     -2.039379    2.36421300    0.83616800
Se    1.86575000   13.91077000   16.87445000      0.409426    0.03125600   -0.20794000
Se    0.63325000   16.97619000    8.41122000      0.175092    0.05095800    0.39385700
Se    2.62356000   20.35813000   14.32110000     -0.351126   -0.56818400   -0.07076400
Se    6.91748000    1.04231000    3.25560000     -0.954975    0.96015600    3.33579100
Se    7.51893000    0.21207000    1.42551000      1.428045   -1.65304700   -2.94486300
Se    9.29883000    8.10818000    6.31619000      0.186860    0.17703100    1.27854700
Se    4.32716000    4.35910000   14.78460000     -0.087130    0.62847000    0.72612600
Se    5.18486000   12.23559000    4.70905000      1.363343   -2.26190600    0.82648500
Se    9.72101000   13.70090000   13.71488000      0.113312    0.17541000   -0.01795300
Se    8.04765000   17.53873000    4.02680000      1.245195    0.70298600   -0.97202800
Se    7.16370000   16.79560000   14.23123000      0.744856   -0.12378700   -0.17438700
Se   13.96309000    0.63820000    3.72709000      0.044542    0.06358400    0.50902900
Se   13.70549000   22.37131000   15.81980000     -0.158654    0.20271100    0.55020800
Se   12.15597000    9.86200000    4.96086000     -0.257684    0.39535200   -0.18373700
Se   11.84312000    6.62262000   15.21964000     -0.017136   -0.24676200   -1.29559200
Se   14.02958000   12.72577000    5.63993000     -0.732350    0.20721900    0.76926600
Se   13.84498000   14.32484000   14.90498000     -0.487562   -0.47991400   -0.74517500
Se   11.91471000   18.87591000    7.46611000     -0.158525   -0.13774700    0.31580900
Se   12.01815000   18.50020000    1.17625000      0.770845    0.10934500   -0.25514100
Se   19.82108000    1.81647000    5.32707000     -0.020938    0.98785600   -0.30893300
Se   18.07484000    0.65202000   16.25351000     -0.236513   -0.25830100    0.31130200
Se   19.52228000    5.47743000    6.36801000      0.033974   -0.47482200   -0.29078000
Se   19.00112000    5.94469000   16.60252000      0.211686    0.86392900   -0.31742000
Se   19.25757000   11.83729000    4.04704000     -0.270642   -0.27702100   -0.04765400
Se   17.28114000   14.33020000   12.78627000      0.498051    0.38100100    0.00295700
Se   17.32891000   18.51944000    4.93681000      0.102241   -0.41054000    0.28341000
Se   17.57148000   19.32049000   15.84831000      0.050234    1.29884200   -0.31155600
Se    2.22856000    6.73739000    5.77186000      0.438390    0.60253600   -0.24652500
Se    1.67595000    6.42742000   13.62574000      0.757472    0.56300300    0.15588800
Se    1.85972000   11.74753000    5.20108000     -1.497277   -0.13675400   -0.69064400
Se    3.86378000   10.72536000   14.93686000     -0.319554   -0.35812500    0.56299500
Se    5.83535000   13.85898000    7.59924000      0.942804    0.07836900    0.31690000
Se    2.93381000   17.35359000   17.87893000      0.920913   -0.08638100    0.55181200
Se    1.75261000   19.73534000    7.97204000     -0.207464    0.63844600   -1.46026900
Se    6.56361000   21.18162000   14.97436000      1.049187    0.89836700   -0.07137500
Se    9.42496000    0.58406000    5.08140000     -0.125347   -0.18415500   -0.35782900
Se    7.31409000    1.91357000   17.45400000     -0.072606    0.23496500   -0.11621000
Se   12.94973000   12.09478000    9.90752000      0.391816   -0.14942600   -0.40301500
Se    9.88461000   10.31483000   17.59809000      0.429740   -0.78497100   -2.11140300
Se    8.30268000   13.51869000    8.57953000     -0.256896   -0.46613000   -1.04425400
Se   11.61981000   17.35833000   14.30102000      0.446277   -1.09204700   -0.17770300
Se   12.42494000   20.89846000    4.68399000     -0.818282    0.40558900   -0.66365900
Se   10.12597000   17.71134000   17.86960000      1.517680   -0.16692400    0.50387100
Se   10.79843000    4.43349000    6.68122000     -0.053804   -0.07931300    0.72996300
Se   18.08951000    3.84329000   16.64091000     -0.823113   -0.61180300    0.19984800
Se   16.95156000    8.77674000    5.34585000     -0.111790   -0.09210900    0.10771500
Se   16.56659000    7.91589000   12.81979000     -0.073254    0.98646800    1.19956100
Se   17.52007000   11.32586000    5.52853000      0.087868    0.23995100    0.08793700
Se   15.09281000   17.41766000   15.78747000     -0.123158   -0.27051800    0.30642300
Se   16.44496000    2.24967000    5.02916000     -1.435324   -1.07405400   -0.56692900
Se   18.50072000    2.94121000   13.20999000     -0.682561   -0.30484000   -0.02636300
Se    1.29980000    2.92284000    5.23590000     -0.284782    0.58144200    0.07100200
Se   22.35668000    5.12803000   15.48887000      0.903412    0.33348200    0.18710400
Se   18.85484000   13.03949000    8.50057000     -0.451523    1.85569600    0.10456100
Se   22.34603000   13.02068000   13.67099000     -0.058684    0.29134100   -0.10950800
Se   21.49917000   14.83494000    5.89735000     -0.615425   -0.01034600    0.01844800
Se   20.19422000   19.08452000   13.29154000     -0.012173    0.26022300    0.95254000
Se   20.41321000   19.39520000    8.09902000     -0.553788    0.15997000    0.09982100
Se   20.93368000   20.58460000   15.90793000      1.045097    0.93101000    0.09426100
Se    3.67000000    0.38560000    4.00917000      0.294009    0.14107100    0.61352700
Se    7.24545000    2.15180000   14.89738000      0.387029    0.54933900    0.43881600
Se    2.23396000    6.14616000    0.87412000      0.650675    0.56338300    0.06683300
Se    4.42021000    8.04615000   12.21514000      0.612755   -0.33995900    1.18436400
Se    2.01308000   13.52253000    1.70401000     -1.536406   -0.25566600    0.12617500
Se    5.08408000   14.43884000   15.27808000      0.681793    0.31271100   -0.30644400
Se    5.45023000   17.84660000    2.34255000     -0.730587   -0.74310100    0.52876700
Se    5.04392000   17.30945000   12.02383000      0.549823    0.11850000    0.51638900
Se   10.87366000    0.69436000    2.67063000     -1.300345    0.63041300    0.44682200
Se   10.62480000    1.05326000   16.85590000      0.747601   -1.29381800    0.01560800
Se   10.21320000    7.32407000    2.53644000     -1.484605   -0.81622900    0.43988900
Se    7.21052000    8.21290000   15.67875000      0.043806   -0.34651400    0.84218100
Se   10.45070000   11.25731000    3.43244000      0.635693   -0.86922500   -0.03596100
Se    9.65896000   10.86136000   12.53731000     -0.266219    0.15419200    0.23652500
Se    9.62742000   20.00646000    1.83718000     -0.090076    0.00236500    0.59506000
Se   14.81762000   18.39983000   12.65465000      0.230723   -0.79992500    0.55102700
Se   14.33106000    3.34734000    5.81356000     -0.076489   -0.23663400    0.10776600
Se   15.36151000    1.47390000   15.79433000      0.229564   -0.31726500    0.00792400
Se   15.63655000    5.80073000    4.23127000      0.380296   -0.33077400    0.74517800
Se   13.22303000    8.66169000   10.89157000     -0.297516   -0.86689900    0.32648700
Se   15.74893000   11.15084000    2.29850000     -0.121967    0.00717000    0.64515800
Se   16.85248000   13.98483000   16.44605000     -0.198516    0.01593100   -0.02828900
Se   15.58217000   15.73211000    3.82403000     -0.252346   -0.24548300   -0.36562300
Se   14.32612000   21.86896000   12.61279000      0.353085   -0.11572600    0.67134900
Se    0.57302000   21.45903000    6.27559000     -0.107404   -0.16876200    0.37255500
Se   19.61545000    0.15147000   13.31704000     -0.419873   -0.50940400   -0.40072300
Se   22.40192000    7.29445000    3.50661000     -0.142701   -0.34094200   -0.09786300
Se   19.25259000    8.38244000   13.91823000      1.754256   -2.44054500    1.51979100
Se    1.19404000   14.01761000    6.15793000      0.412899   -0.35142500   -0.04628600
Se    0.47538000   15.91188000   14.56931000     -0.381450   -0.50217600    0.47394700
Se   22.27956000   18.24427000    4.32745000     -3.262801   -0.67627200   -0.50910700
Se   21.75498000   21.50215000   10.21855000      0.279655   -0.64084200    0.94586500
Se    3.49051000    5.09985000    3.26845000     -0.617043    0.14131300   -0.43472200
Se    1.94728000    3.42428000   11.82965000     -0.935359    0.18676300    0.92915200
Se   21.90412000   10.96016000    2.12498000     -0.378444   -0.21493200    0.27342400
Se    1.73897000   10.18531000   11.59650000     -0.702589   -0.68903500    0.29705600
Se   22.06186000   16.32325000   18.62368000      0.299638    0.17495300    0.08563400
Se    3.39114000   15.82741000   12.98671000     -0.577309   -0.41709200   -0.46842200
Se    1.67680000   21.25751000    2.35036000      0.660835   -0.47665900   -0.31555400
Se    5.24152000   19.43124000   15.42819000     -0.684801   -0.83429900    0.39446900
Se    8.97860000    4.39819000    4.45022000     -0.106392   -0.21672200    0.22607400
Se    9.70194000    2.85821000   14.27791000     -0.041333   -0.35715100   -0.10405000
Se    6.06102000    6.75769000    4.61964000      0.671022   -0.47553500   -0.43507800
Se    8.11302000   11.82147000   15.31834000      1.626033   -0.14998500    1.47409100
Se    5.78083000   14.60875000    2.33913000      0.538118    0.13651100   -0.70826300
Se   10.24479000   14.68642000   11.29630000      0.003621    0.72500500    0.52154000
Se    5.93249000   20.99255000    5.90693000     -0.236684   -0.36909000    0.20270300
Se    9.85685000   20.03299000   15.00532000     -0.303404    0.18441600   -0.57207800
Se   13.44124000    2.80171000    2.38130000      0.863710   -0.79338700    0.56671800
Se   11.38116000    4.88194000   11.66062000      0.176681    0.82789300    0.41983500
Se   13.82051000    7.85002000    2.67115000     -0.398163    0.58658200   -0.08221000
Se   10.90519000    9.20107000   14.19759000      0.305481    0.29102400    0.10038700
Se    9.13394000   14.03291000    4.19922000     -0.232189    0.09240200   -0.33407600
Se   14.88117000   14.57487000    9.64980000     -0.354825    0.13371200    0.35166200
Se   15.07891000   20.07332000    2.18700000      0.493465    0.25663300    0.22671200
Se   13.34723000   20.08065000   14.13146000      0.147873   -0.00862600   -0.52443300
Se   18.73578000    5.58320000    0.93264000     -0.418946    0.23075600   -0.00495000
Se   15.06243000    4.55409000   13.93123000     -0.686512    0.26667700    0.35750500
Se   18.35119000    8.07087000    3.60580000      0.770832   -0.03590100   -0.65358200
Se   21.00652000   14.28073000   11.34103000      0.328342    0.04861000    0.26408600
Se   20.61362000   14.88235000    2.75339000      0.728162   -0.12987500    0.57135400
Se   17.89821000   17.38935000   11.62220000      0.060583    0.11416600   -0.00630900
Se   17.14935000   22.26560000    4.90594000      0.494998   -1.03810400   -0.47956800
Se   17.03914000    1.59075000   10.55122000     -0.720046    0.00109700    0.17515500
