384
22.54784000 22.54784000 18.93360000
Ge    5.54419000    5.33630000    9.60013000     -0.284998   -0.87832700   -0.40303400
Ge    4.36507000    7.66871000    1.20696000      0.256794   -0.14556900   -0.40499700
Ge    3.32591000   11.49268000    7.22346000      0.872762   -0.99470200   -1.15265600
Ge    6.43536000   10.67353000   17.12667000     -0.829094   -0.69197900    0.03781500
Ge    4.30868000   14.58036000   10.97295000      0.947084   -0.71934800   -1.30230200
Ge    8.60569000   17.62642000    1.01357000      0.294213   -0.14077200   -0.30739500
Ge    7.04186000   19.17814000    7.80373000     -0.728144    1.38566700    0.53726300
Ge    4.76121000    0.96893000   16.59689000      0.773975   -0.86751100    0.55166200
Ge    7.92798000    7.80367000   10.19795000      1.967956   -0.62351800    0.00220800
Ge   11.07401000    5.40705000    0.02014000      0.068645    0.49453500   -0.40662200
Ge   11.89893000    8.65598000    9.12685000     -0.703070   -0.58514300   -0.88768100
Ge    9.77628000   12.02949000    0.02968000     -0.372353    0.13529700    0.29495900
Ge   10.32660000   16.84243000    9.34199000     -0.597836    0.02046900   -0.00242000
Ge   11.81343000   15.44562000    0.09135000      0.600014    0.16037400   -0.88717800
Ge    9.85577000    0.30719000   10.32436000     -1.016283   -0.22520600    0.31531700
Ge   14.58742000   22.27441000    0.84831000      0.442735   -0.13149400    0.01316000
Ge   18.61787000    4.85071000    9.77975000     -0.715705    0.51865100    0.07063600
Ge   18.44721000    8.83027000   17.25005000      0.308427   -0.17617800   -0.47112800
Ge   18.55333000   14.95778000   10.74635000     -0.218188    0.09257000    0.28455000
Ge   17.33818000   12.27084000   17.92724000      0.584057   -0.97218400    1.01015200
Ge   13.19220000   15.82511000    8.45415000     -0.916642   -0.33398400    1.42582100
Ge   16.74667000   15.29382000    0.43754000     -0.136836    0.42497300    0.54063300
Ge   16.15497000    3.77026000    9.84631000      0.748635    1.27854000   -0.22576600
Ge   19.33225000    2.99952000    0.16563000     -0.354834    0.37788900    0.18949700
Ge    1.31960000    3.89760000    9.57384000     -0.235817   -1.27798500    0.35164100
Ge   21.32307000    3.94734000    3.81652000     -0.966458   -0.77515200   -0.23215100
Ge    0.66069000   10.26253000    9.24861000     -0.448922    0.26544400    0.08148600
Ge   21.94203000    9.73017000   18.60454000     -0.068292    0.34987300   -0.76211000
Ge   20.92591000   15.34902000    8.26612000     -0.248789    0.51773400   -0.40142300
Ge    4.34828000   14.65696000   18.01032000     -0.248164    0.69920600   -1.18081600
Ge   19.41648000   22.47825000   10.69130000     -0.611262    0.66081700   -0.06545700
Ge   21.72518000   20.38091000    2.84907000      0.836199   -1.19684200   -0.53947700
Ge    4.18642000    7.57220000    6.96318000      0.023492   -0.69050900    0.98314900
Ge    1.62144000    7.47097000   17.67738000      0.974790    0.40641600   -0.54547400
Ge   20.91579000    9.48083000    3.60551000     -0.638432    0.30248200    1.27586000
Ge    3.07773000   13.14926000   14.90620000      2.035702    0.17866900    0.76408500
Ge    4.79305000   18.57127000    4.72797000      0.130390    0.19336500    0.59622300
Ge    0.82242000   18.79676000   18.75345000      0.445183   -0.68958800    0.46342600
Ge    3.88446000   18.46440000   10.43715000      0.126882    0.15205400   -0.97386300
Ge    1.96241000    0.99418000   18.31644000     -0.883608   -0.25490700    0.45746300
Ge    9.55407000    2.21046000    7.55127000      0.359386   -0.31869200    0.06735700
Ge    7.67312000    5.71382000   17.13479000     -1.108831   -0.03015600   -0.20610900
Ge    7.91561000   10.21885000    3.85232000      0.312796    1.83470800   -0.49422000
Ge    9.85550000    7.93977000   16.35368000     -0.620603   -1.22082200    0.00485200
Ge    7.02305000   15.68043000    8.61015000      0.196834    0.74135500    0.83920500
Ge    8.99539000   15.42356000   15.67906000      0.569331   -0.13157000    0.50548800
Ge   10.59957000   21.40449000    6.83668000      0.071351    0.01163900    0.25374600
Ge   10.54537000   22.49786000   14.07076000     -0.189649    0.57439200   -0.02380700
Ge   11.83631000    7.45794000    4.68400000      0.128791    0.88785800    0.27539700
Ge   15.20355000    4.04558000   16.55398000     -0.075045    0.10779200   -0.53479500
Ge   14.47882000    9.17032000    6.49738000      0.067709    0.57888600    0.13453000
Ge   15.49805000   12.40572000   15.21517000     -1.363703   -0.70148900   -1.56118300
Ge   12.27497000   14.66467000    5.65138000     -0.454953    1.29022800   -0.79203500
Ge   14.26666000   18.43552000    0.30076000      1.305506   -0.15946500   -0.21829300
Ge   14.81706000    0.23624000    9.62827000     -0.947583   -0.54083800   -0.08263800
Ge   16.88047000   21.35365000   13.91527000      0.497148    0.35719500   -0.53194600
Ge   21.51507000    4.76509000    8.81468000     -0.310669   -0.26850000   -0.49776000
Ge   19.94098000    5.51388000   13.95231000     -0.259656    0.48258200    0.80839300
Ge   19.17605000   10.79262000    7.78605000     -0.348197    0.00631500   -0.07307200
Ge   21.36605000   14.78595000   16.48890000      0.296895    0.48307400   -0.07126900
Ge   18.81098000   16.53959000    5.42268000     -0.456277   -0.14984300    0.18945800
Ge   17.35879000   16.85725000   16.68504000      0.431133    0.86153800   -0.06907500
Ge    0.01913000    1.48165000    6.68781000      0.106913   -0.19939700    0.29893300
Ge   18.94857000   21.01119000   17.39473000     -0.183627   -0.34260200    0.34367900
Ge    6.98779000    2.76175000    6.31218000      0.550219   -0.05853400    1.54923300
Ge    4.35471000    2.79462000   12.88210000     -0.267947    0.54242000    0.19358900
Ge    0.14419000    9.29630000    5.91734000     -0.084379    0.46825600   -0.04204100
Ge    2.04801000    7.37909000   11.30400000      0.477392    0.10930200   -0.50505600
Ge    0.65935000   15.67059000    4.20198000     -0.161070    0.14432900   -0.11953500
Ge    2.98691000   17.68733000   15.50420000     -0.991407   -0.37107500   -0.06396200
Ge    3.92597000   22.02996000   10.04764000     -1.376419    1.18810800   -0.59773800
Ge    7.92800000   18.30503000   16.25433000      0.135102    0.20884800    0.25334100
Ge    6.82770000    3.71547000    3.09255000      0.867426   -0.24698500   -1.41081600
Ge    9.47773000    3.37893000   17.32666000     -0.378840   -0.62060700   -0.00783700
Ge    8.11987000    7.89616000    4.18215000      0.820991   -1.50293400    0.17568000
Ge    6.89284000    9.68840000   13.78357000      0.915323   -1.38360800   -0.96822800
Ge    6.36740000   14.77977000    4.62491000     -0.075022   -0.64589300    0.93821900
Ge   11.40123000   11.82128000   15.29611000     -0.513020   -0.11484300   -0.48806400
Ge    7.56821000   20.55485000    3.66026000      0.079357    0.15351500    0.42634900
Ge    9.37712000   16.84516000   12.50034000      0.001181    0.50704800    0.49319800
Ge   12.27877000    1.63849000    5.45125000      0.005762    0.65696800   -1.63049000
Ge   12.63523000    4.19398000   14.35833000     -0.073739   -0.00022900   -0.22801400
Ge   17.49776000    4.52328000    5.29053000      1.673487   -1.76341200    0.21905000
Ge   14.07195000    9.01900000   14.61379000     -0.212006    0.07250500   -0.47658800
Ge   14.88982000   13.30191000    3.51188000     -0.550044   -0.64426600    0.15998500
Ge   13.32098000   15.83259000   12.31921000     -0.292569    0.47125500    0.22916800
Ge   10.71687000   18.66964000    3.75920000      0.561664    0.07965000    0.66545000
Ge   12.00131000   19.91609000   16.51507000      0.330929   -0.63849500    1.11092000
Ge   22.25300000    5.37149000    5.70573000      0.102173   -0.08378000    0.53646400
Ge   22.17924000    3.50293000   13.24839000      0.852950   -0.46492900    0.93931400
Ge   19.18900000    8.04941000    7.06215000     -0.320088   -0.75211500    0.22593000
Ge   17.69372000   10.27877000   13.05392000     -0.188223   -0.34312600   -0.59395800
Ge   19.60307000   17.01361000    0.88714000      0.955431   -0.30570600    0.39007900
Ge   19.28515000   15.93192000   13.96677000      0.097429   -0.68757800   -0.12060300
Ge   19.36898000   20.49060000    5.42729000     -0.202631   -0.15442300   -1.22804000
Ge   21.65115000   21.25766000   13.26006000     -0.021059   -0.30873900    0.07851500
Ge    3.67311000    2.68036000    3.00599000     -0.653173   -0.19911800   -0.13208100
Ge    6.03656000    0.23235000   13.27443000      1.211017    1.32951800   -0.52340900
Ge    3.72812000    7.86089000    4.07406000     -0.955618    1.15967600   -1.39966200
Ge    6.89072000    4.77906000   14.45067000     -0.678503   -0.60914600    0.36331500
Ge    4.26290000   12.31775000    2.25956000      0.072276    0.27404300   -0.18195300
Ge    3.98261000   10.83424000   12.14431000     -0.410241   -0.53735900    0.20464100
Ge    3.33351000    0.38207000    6.82691000      0.521418   -0.33518300   -0.48722800
Ge    7.31866000   19.20303000   12.67659000     -0.439190    0.72801000   -0.33661600
Ge   10.39252000    3.25073000    2.55881000      0.848082   -0.27105000    0.07787100
Ge    9.08228000    4.63076000   12.41579000     -0.790738   -0.34211900    0.19231200
Ge   12.06224000    8.56250000    1.16878000      0.178048   -1.27018400   -0.11131300
Ge   10.83442000    7.52927000   12.20280000      0.635886    0.37013500    0.21071100
Ge    8.33846000   13.98628000    1.63440000      0.072944   -0.28684600    0.14081100
Ge    8.10811000   12.37025000   11.09669000     -0.384314    1.84332400   -0.98519900
Ge   11.95861000   21.29349000    1.27249000     -0.424513   -0.10953600    0.00069800
Ge   11.19318000   19.06169000   12.69864000      0.031095    0.56436900    0.28792700
Ge   22.42981000    0.46468000   16.15697000     -0.149268   -0.23919400    1.69769400
Ge   12.85804000    2.08096000   10.18060000     -0.452058   -0.49611900    0.72940800
Ge   15.98289000    6.55657000    1.91313000      0.811903    0.66383300    0.81870700
Ge   15.22381000    6.80895000   10.98032000      0.701296   -0.01064700    0.23880100
Ge   18.12876000   11.59520000    1.69110000      0.906569    0.02741500    0.41639300
Ge   16.99895000   17.07033000    9.57308000     -1.097699   -0.63396100   -0.23198300
Ge   17.53402000   21.19243000    2.57862000      1.168291    0.04007500   -0.93502900
Ge   14.86634000   19.90664000   10.96367000      0.125073    0.11980200   -0.06137800
Ge   21.62173000    1.70689000    2.30890000      0.577049    0.15936800    0.59219700
Ge   21.68376000    1.59837000   10.39856000      0.479233    0.02395000   -0.79099400
Ge    0.63399000    8.61179000    1.85867000      0.799085   -0.37083100   -0.41337700
Ge   21.58628000    8.94344000   13.26264000     -0.441120   -0.21608000   -0.00771700
Ge   20.15173000   13.06528000    0.74065000      0.545531    0.08983000    0.43144300
Ge    0.59091000   14.52240000    9.18944000     -0.357258    0.94552300    0.35831900
Ge    2.14494000   19.26968000    4.86517000     -1.057839    0.02913400   -0.27542600
Ge   19.64596000   19.32274000   10.79126000     -0.195847   -0.01667400   -0.02748200
Se   21.34680000    0.19151000    0.58118000      0.167094   -0.20067900   -0.74392600
Se    1.68619000    1.40746000    8.68437000     -0.871269    0.55008600    0.26626200
Se    2.30923000   10.11246000    2.97513000      1.074090   -0.70750400   -0.01285100
Se   22.12896000    6.47809000   12.56228000      0.606859    0.51037600   -0.12885500
Se   22.06349000   12.55989000   17.97623000     -0.179235    0.64390900    0.20869400
Se    2.14932000   12.72452000    8.89979000      0.104482   -0.44787100    1.25671600
Se    3.07263000   16.58992000    5.19321000     -0.797365    1.32303800    0.37380700
Se    1.89023000   16.10406000   10.90081000     -0.462163    0.39018800   -0.80508200
Se    5.00773000    2.20804000    1.05682000      0.220002    0.23211400   -0.30841400
Se    6.12709000    4.57576000   12.04724000      0.097642   -0.24729800   -0.47412100
Se    6.46252000    6.24978000    2.14451000      0.082124   -0.36182200   -0.29234400
Se    8.36457000    7.38049000   12.66945000     -0.595825   -0.36160800   -0.24555300
Se    7.88626000   10.04884000    0.10041000      0.336536   -0.13471200    0.78937400
Se    6.09662000   11.86149000   14.25119000     -0.391036    1.52591500   -0.29196900
Se    5.79763000   20.18023000    1.85126000      0.376070    0.23276200    0.05073100
Se    8.73086000   18.58288000   10.62712000     -0.036079   -0.23503200    0.23588100
Se   12.11023000    2.06707000    0.68776000      0.084580   -0.82909700   -0.43746900
Se   12.70698000    1.81941000   13.12720000     -0.136781    0.33870300    0.11501900
Se   12.52247000    7.53372000   17.80866000     -0.548639    0.00295200    1.26887500
Se    9.85642000    9.64890000   10.39043000      0.003985   -0.03479400    0.15109200
Se   13.02756000   13.19068000    1.69699000      0.055037    1.61999800    1.18701100
Se   12.63271000   10.75035000    7.95465000     -0.031600    0.31769500   -0.42180400
Se   13.92651000   16.65851000    2.54184000     -0.047683    0.33859300   -0.65805100
Se   12.55268000   17.46764000   10.35607000      0.502350    0.43013000   -0.10680000
Se   18.84015000    3.56119000    2.90742000      0.425144    0.08426000    1.23507000
Se   16.25477000    1.57747000   13.14308000      0.242336    0.30984300    0.10262600
Se   16.41883000    7.75481000   18.17282000     -1.213035    0.36660300   -0.40051200
Se   17.70651000    4.97176000   12.70053000      0.134813    0.47107700   -0.47592900
Se   18.34061000    9.12374000    0.94222000      0.339918    0.68567300   -0.46278100
Se   17.19105000   14.51871000    7.03155000      0.805640    0.11745800    0.16813900
Se   21.11224000   19.40798000    0.57505000     -0.841761    0.75356500    0.59528000
Se   15.91019000   18.92075000    8.10839000      0.084447    0.23167700    0.00989100
Se    1.59679000    2.07853000    1.79541000     -0.637418   -0.47533900   -0.57879100
Se    5.54949000    7.80720000    9.98630000     -1.469800    0.26513300    0.50682900
Se    6.32600000   10.40161000    1.97246000      0.042353    0.01552100   -0.02450200
Se    4.75906000   12.04709000   10.03666000     -0.077817   -0.77671500   -0.42080200
Se    2.90867000   15.70634000    1.02488000     -0.261695   -0.91764500    0.85245700
Se    2.40395000   13.08144000   12.64677000     -0.122809   -0.09201100   -0.82524100
Se    3.92271000   21.67371000   18.62723000     -0.683645    0.12400500   -0.83458600
Se    5.52689000   20.45729000   10.33862000      1.931373   -1.92578700    0.15818100
Se   12.64359000    5.10667000    2.29621000     -1.198917    0.18603700    0.52345200
Se    6.74705000    5.37870000    7.36335000      0.073402   -0.46589100    0.37450400
Se   11.88595000   10.95632000    1.07613000     -0.382896   -0.96951100    0.34208900
Se    6.83881000   10.64425000   10.21144000     -0.815323   -0.41205300   -0.14672200
Se   10.28083000   15.61618000    1.94616000     -0.911564    0.12147100    0.40957700
Se   12.78015000   12.86278000   13.23676000     -1.088554   -2.24376900   -3.09823800
Se   10.45206000   21.19414000   18.07488000      0.151104    1.09158600    0.12626100
Se    8.24287000   22.07021000   12.29989000      0.688647    0.16886400   -0.29304800
Se   14.56729000    5.01843000    0.74447000      0.737650   -0.33009200   -1.63031400
Se   17.15225000    6.81831000    8.60504000      0.262656   -0.62226300   -0.02067000
Se   15.38568000   10.59662000   18.48653000     -0.821768   -0.06804800    0.33331800
Se   15.23110000   11.78303000   12.72508000      0.492236    0.06352200    0.64207300
Se   18.05749000   15.41632000    3.08041000      0.206358   -0.75717100   -0.76283900
Se   16.27591000   11.22814000   10.04244000      0.243626    0.78607600    0.09353700
Se   18.26312000    0.16288000    0.57409000     -0.921761   -0.68183600    0.71919000
Se   15.01897000   21.10876000    7.44781000      0.225727    0.21987300   -0.09927500
Se   22.00260000    4.40475000    1.43249000      0.843108   -0.04750200   -0.54364200
Se   20.85670000    3.95525000   11.17904000     -0.521046    0.40241000   -0.33542500
Se   20.96774000    6.38354000    0.64364000      0.274730    0.26201800   -0.14484500
Se   21.25576000   10.97060000   11.85987000     -1.432334   -0.59453700   -0.61195400
Se   19.01190000   14.78425000   18.26166000      0.322991   -0.25789500    0.25824300
Se   20.99216000   16.81033000   12.41607000      0.405172   -0.33483200   -0.21196100
Se   21.52908000   22.49592000    4.14260000     -1.004368    0.29577200    0.55591600
Se   17.46344000   20.82764000   10.89008000     -0.152327   -0.11339300    0.39186800
Se    3.06156000    5.11302000    8.77299000      1.262557    1.15008200   -0.74308300
Se   21.54611000    3.32122000   17.27171000      0.886406    0.51164400   -0.44502400
Se    2.71696000    9.11815000    8.30763000      0.104394    0.83378600   -0.09402500
Se    1.72958000   10.29917000   16.81120000      0.082695   -0.93581600    0.39050100
Se    4.87147000   17.75408000    8.14790000     -0.305346   -0.23501200    0.43604400
Se    0.31484000   17.97880000   15.42655000      0.523685   -0.39466000    0.12932700
Se    0.99494000   18.92659000   12.77652000      0.174392    0.26994300    0.74888500
Se    1.24301000   20.60992000   17.10337000      0.052452    0.00909600    0.33912900
Se    5.25773000    3.56052000    4.90001000     -1.378364    0.81930400    0.60016300
Se    4.98612000    5.76300000   17.82534000      0.535426    1.04183100   -0.22574900
Se    5.23736000    9.30213000    5.47238000     -0.047156    1.05581300    0.43863400
Se    3.79040000    6.92399000   15.80415000      0.056811   -0.38270900    0.93233800
Se    6.91361000   14.47867000   11.36848000     -0.748203    0.46430300    0.70206500
Se    6.55103000   17.10710000   18.05581000      0.128039   -0.69042400    0.03857600
Se    9.58972000   18.16265000    6.20269000      1.192297    0.57361500    0.31998900
Se    5.78249000   20.21291000   18.19806000      0.188604   -0.73618400   -0.14963600
Se    9.92569000    2.78208000   10.26438000      0.372173   -0.59404700   -0.55056700
Se   12.48688000    3.94792000   16.87213000      0.218205   -0.37670500   -0.05973300
Se   13.43857000    7.01049000    6.42772000      0.156560   -0.49015100    1.15008500
Se   13.57305000   11.17626000   16.27382000      1.083368   -1.29913700    0.62915500
Se   10.98264000   14.74529000    7.86633000      0.700188   -0.41289700    0.09988300
Se   14.33870000   15.77853000   17.06930000     -0.955903   -1.06629800    2.02958600
Se   12.21582000    0.86735000    7.67934000     -0.620587   -0.60436100    1.08242000
Se   14.58308000   20.69525000   17.79996000     -0.444189    0.33982600   -0.31410700
Se   13.96382000    4.29611000   10.40867000     -1.024837    0.45230600    0.06131400
Se   20.39533000    1.84711000   15.69390000      0.225082    0.42304600    0.11419600
Se   18.96585000   10.08310000   10.71219000      0.518552    0.86675200    0.40376900
Se   17.51249000   10.98135000   15.78101000      0.327467   -0.95645400   -0.30125000
Se   14.37981000   16.41256000    6.63565000      0.355132    0.39569300   -1.25504900
Se   20.06736000   13.66698000   14.58929000      0.547738   -0.56484300    0.21192900
Se   19.15618000   21.35203000    7.60320000     -0.590825    0.96729500    1.69960500
Se   18.97053000   18.86519000    3.09733000     -1.161079    0.55100100   -0.15548600
Se    5.33780000    1.03821000    8.11224000      0.309275    0.36952700   -0.27639800
Se    3.65858000    2.76003000   17.91459000      0.111078    0.62065900    0.62048200
Se    8.34070000   10.16582000    7.31667000      0.588711   -1.03732600   -0.33653100
Se    4.07694000    9.91981000   18.49539000     -0.652491   -1.10611100    0.22465000
Se    6.86719000   17.42778000    6.10013000     -0.996861   -1.16788300   -0.93817800
Se    4.69042000   12.23354000   18.34688000      0.676433    0.24609000    0.48361400
Se    1.48815000   19.56831000   10.63321000      0.657664    0.65973000   -0.93561300
Se    2.83764000   18.67311000    1.61234000     -1.345102    1.25865800    0.47929200
Se    8.47448000   22.02795000    8.57426000      0.131447    0.26712900   -0.47746300
Se    8.60071000    3.39217000    1.01240000     -0.229002    0.05538800   -1.09402000
Se    9.82917000    5.64692000    8.59577000      0.221633   -0.30355200   -0.43526100
Se    8.59407000    6.87762000    0.07416000      0.670563    0.06517000   -0.04866000
Se    8.31546000   12.02599000    5.53306000      0.110235   -0.26125300    0.20157400
Se    7.66580000   14.68548000   17.82521000     -0.313498    0.61085500    0.11120600
Se   11.59700000   21.40291000   10.73457000      0.356597    0.14718000    0.26973700
Se   10.88716000   13.54753000   17.28000000     -0.002633    0.92779000    0.32572300
Se   16.08673000    0.80995000    7.53267000     -0.274315   -0.75408700    0.01310900
Se   16.32680000    3.33850000    0.91224000      0.061968   -0.02079700   -0.14083600
Se   15.87622000    4.53971000    7.51960000      0.240211    0.58425400    0.03112400
Se   14.87833000    7.18966000   16.13144000      0.475759   -0.37987700    0.67067100
Se   15.85502000    9.16461000    9.32570000     -0.189869   -0.23963000   -0.66903300
Se   14.33974000   12.92475000   18.79327000      0.776347    0.23613600   -0.62068300
Se   13.34589000   18.82419000    5.60040000     -0.610240    0.20795500    0.18940400
Se   17.31318000   17.88785000    0.08477000     -0.539585   -0.41368000   -0.31920700
Se   20.32324000    1.96348000    8.16320000      1.066412    0.46574300    0.10092200
Se    0.59728000    0.72245000   13.93343000      0.682771   -0.00848300   -1.35439600
Se   20.23823000    7.65001000    9.33394000      0.766707   -0.13222100   -0.17760400
Se   22.01131000    7.90360000   16.82407000     -0.929245   -0.80905500   -0.62966700
Se   21.32808000   11.33725000    6.79599000      0.263791   -0.34695100    0.39278300
Se   20.20171000   11.30425000   17.03637000      0.302405   -0.24031700    0.19408000
Se   18.90671000   17.26078000    8.03214000      1.017383   -0.01965300   -0.41157400
Se   20.00125000   16.96707000   16.05784000     -0.201485    0.71525900    0.07505300
Se    3.91717000   22.34427000   12.57523000     -1.702623   -0.03145300   -0.50518200
Se    2.89344000    1.67812000   15.20384000     -0.680415    0.41441300   -0.42607300
Se   22.43235000    7.62504000    8.15282000     -0.356848    0.14709100    0.67452800
Se    0.75898000   10.17681000   14.50110000      0.566500    0.03426900    0.46337700
Se    3.67049000   14.39663000    4.76387000      1.093418   -0.88841400    0.17519300
Se    1.84544000   13.93717000   16.71874000      0.439890    0.18328700    0.57972100
Se    0.44507000   16.98675000    8.16848000      0.077947   -0.47788400    0.42713700
Se    2.63864000   20.16667000   14.50489000      0.268786   -0.68418000    0.09363600
Se    6.85196000    0.82994000    3.40468000      0.218848   -0.64592300   -1.32407100
Se    7.55627000   22.45323000    1.16501000     -0.437747    0.85756700    1.28716400
Se    9.19044000    7.90525000    6.40101000     -0.249120    0.72965600    0.34842100
Se    4.31391000    4.20447000   15.11110000      0.232861    0.32234800   -0.52877300
Se    5.15069000   12.10281000    4.70383000      0.178582    0.26389600   -0.08595500
Se   10.01630000   13.57869000   13.89321000     -0.402377    0.05536800    0.01448900
Se    8.22763000   17.71824000    3.93012000     -0.337947    0.10752300   -0.15032700
Se    7.14354000   16.81959000   14.00670000      1.084894   -0.40771800    1.06400500
Se   14.07278000    0.50153000    3.77232000     -0.160741   -0.16026200    0.57922500
Se   13.58746000    0.02255000   15.88574000      0.074451    0.11690400    0.63402900
Se   12.27257000    9.91045000    4.92482000     -0.240971    0.19086700   -0.18199100
Se   11.63965000    6.69919000   14.94302000      0.437334   -0.94054000   -1.22095700
Se   13.93917000   12.97899000    5.72781000      0.587795   -1.42651600    0.03657800
Se   13.48397000   14.16702000   14.79343000      1.372107    2.53092800    2.10052300
Se   11.87547000   18.84959000    7.52905000     -0.191823   -0.19434900   -0.48601400
Se   12.15975000   18.28961000    1.40527000     -0.800084    0.84439500   -0.06513200
Se   19.63234000    1.95007000    5.14703000      0.245840    0.41683700   -0.40916700
Se   18.22657000    0.61165000   16.31168000     -0.067515    0.60896000   -0.00594000
Se   19.58308000    5.41154000    6.44912000     -0.211669    0.41221300   -0.05893500
Se   18.96260000    6.06977000   16.70861000      0.176980   -0.33071400   -0.87366600
Se   19.33002000   12.00164000    4.16479000     -0.208299   -0.58327200   -0.80756600
Se   17.47694000   14.48545000   12.99333000     -0.522606    0.16430100   -0.18538400
Se   17.09756000   18.70571000    4.99090000      1.540107   -0.46303800   -0.04337400
Se   17.48012000   19.56091000   15.92938000     -0.012339    0.25061500   -0.19096600
Se    2.13954000    6.81659000    5.63824000      0.227358    0.39396700    0.34401700
Se    1.95369000    6.50471000   13.59366000     -0.362379   -0.13082400    0.61149800
Se    1.58253000   11.70626000    4.88215000     -0.286242   -0.27018700    0.67486500
Se    3.82119000   10.77545000   15.05860000     -0.259461    0.16666800    0.64655900
Se    5.72179000   13.95195000    7.72451000      0.163526   -0.63235000   -0.37595000
Se    2.78875000   17.23000000   17.99125000      0.757750    0.19127400   -1.36282200
Se    1.79015000   19.86514000    7.54284000      0.935104   -0.56027800    0.09909400
Se    6.55378000   21.12473000   14.77460000      0.869028   -1.10382200    1.46623700
Se    9.52936000    0.59579000    5.20735000     -0.254398    0.01574700   -0.46384900
Se    7.15451000    2.05492000   17.60712000      0.481446    0.10401200   -0.41172100
Se   13.14234000   11.97463000    9.85543000      0.465355    0.53547500    0.35788300
Se   10.07748000   10.19998000   17.09364000      0.279029    1.60356600    0.94537600
Se    8.34349000   13.41380000    8.73732000      0.115728   -0.43281900   -0.81405400
Se   11.76759000   17.15153000   14.23324000     -0.248421   -0.76918200   -0.32501400
Se   12.13617000   20.87940000    4.72619000      0.228229   -0.35999900   -0.71991000
Se   10.11206000   17.71235000   17.81575000     -0.076423   -0.22458700   -0.53152400
Se   10.71682000    4.46782000    6.69237000     -0.170937    0.19744300    0.69378800
Se   18.11954000    3.85185000   16.93792000     -0.394266    0.39499000   -0.35101900
Se   16.89534000    8.51839000    5.08001000      0.002192   -0.08986300    0.36123400
Se   16.59418000    8.00992000   12.95306000     -0.833339    0.00773200    0.00636800
Se   17.63894000   10.98450000    5.43992000     -0.235259    0.54061200    0.59957400
Se   15.04826000   17.36589000   15.73533000      0.161193    1.30786600   -0.80110000
Se   15.97709000    2.25436000    4.99414000      0.712248   -0.60687800   -0.94310900
Se   18.55391000    2.76307000   13.21324000     -0.792923    0.04041600   -0.17056300
Se    1.24075000    3.20935000    5.15581000     -0.452682   -0.14525700    0.43152400
Se    0.14014000    4.99583000   15.53648000     -0.447539   -0.55431700    0.50714800
Se   18.80285000   13.40455000    8.50858000     -0.638742   -0.18818800   -0.77479900
Se    0.04880000   13.26790000   13.54010000     -0.823637   -0.23617300    0.27671400
Se   21.22371000   14.79333000    5.75246000     -0.107535   -0.04157300    0.17526900
Se   20.18665000   19.15948000   13.21958000     -0.175649    0.29480300    0.57819800
Se   20.38455000   19.41139000    7.89001000      0.518178   -0.70031400   -0.17814500
Se   21.12710000   20.78412000   16.02564000      0.704565   -0.03312200    0.08204500
Se    3.91022000    0.50340000    4.08355000      0.262776   -0.33984500    0.56105800
Se    7.14941000    1.89299000   14.96434000      0.267256    1.03399300    0.10778400
Se    2.33934000    6.11520000    1.05769000      0.040248   -0.01149800    0.09453400
Se    4.44794000    7.87649000   12.29041000      0.551259    0.14447800   -0.44860800
Se    1.99545000   13.54779000    1.60353000     -0.107462    0.37175300    0.14494400
Se    5.23133000   14.67897000   15.26445000     -1.231024   -0.46695400    0.01169700
Se    5.47606000   17.77701000    2.39672000     -0.146743    0.11231400   -0.03722500
Se    5.32004000   17.23507000   12.09865000     -0.372424    0.71561100   -0.54474300
Se   10.61631000    0.71464000    2.75590000     -0.051260    0.38113500    0.33142400
Se   10.75911000    1.09557000   16.84052000      0.130959   -0.43830600    0.20752800
Se   10.37507000    7.22578000    2.74464000     -0.573439    0.19928600   -1.09262500
Se    7.22705000    8.24832000   15.80646000     -0.048703   -0.37648900    0.61730400
Se   10.54289000   11.26896000    3.66110000     -0.204705   -0.57218700    0.29583800
Se    9.63255000   11.25701000   12.44175000      1.034417   -0.26173600    0.55324000
Se    9.63056000   20.13321000    1.95055000     -0.348838    0.09731900    0.06220600
Se   14.81978000   18.14455000   12.99100000      0.283552    0.31825500   -0.97495100
Se   14.22826000    3.45785000    5.88501000     -1.361514    0.09307700    0.35866800
Se   15.68072000    1.28520000   15.84250000     -0.358233   -0.07387900    0.02978700
Se   15.73990000    5.67577000    4.49686000     -0.958138    2.06041000   -1.36175400
Se   13.55078000    8.63762000   10.86272000     -0.428028    0.05871300    1.13838800
Se   15.87179000   11.34593000    2.49514000     -0.440274   -0.44257000    0.40990800
Se   16.65211000   14.02636000   16.44599000      0.099801    1.51921500   -0.29180800
Se   15.59323000   15.54230000    3.81837000      0.953025    0.46070400    0.54176000
Se   14.30898000   21.79115000   12.85979000      0.425343   -0.39616800   -0.30333900
Se    0.43799000   21.30468000    6.38087000     -0.814582    0.64606100   -0.61486100
Se   19.59933000    0.15597000   13.17952000     -0.284108   -0.18176700    0.31127500
Se   22.21948000    7.15091000    3.67112000     -0.380466    0.19260200   -0.07867400
Se   19.39516000    8.11386000   13.80838000     -0.013557    0.52235700    0.31616000
Se    1.11430000   13.80228000    6.20724000     -0.839956    0.57732000   -0.34825100
Se    0.59892000   15.63221000   14.55593000     -0.812661    0.21508500    0.42059500
Se   21.97065000   18.10148000    4.03583000      0.631564    0.56894900    0.42943500
Se   21.71331000   21.49877000   10.71562000      0.626738   -0.78110500   -0.47414200
Se    3.22806000    5.19264000    3.15092000     -0.382164   -0.40395800   -0.10627200
Se    1.83873000    3.32686000   11.89694000      0.133481   -0.09111300    0.21792300
Se   22.09812000   10.99024000    1.99650000     -0.875778    0.56890800    0.38721400
Se    1.51537000    9.86045000   11.74675000      0.453760    0.25739100   -0.48707000
Se   22.16099000   16.51580000   18.67802000     -0.257633   -0.11549700   -0.46555900
Se    3.38980000   15.84086000   12.82043000     -0.133325    0.57722200    1.62781900
Se    1.59208000   20.86030000    2.31287000      0.383481   -0.46245300    0.31643000
Se    4.94252000   19.32826000   15.36925000      0.071454    0.60645500    0.08620900
Se    8.99903000    4.45515000    4.15041000     -0.905437    0.01182800    1.18084400
Se    9.84896000    2.99165000   14.11770000     -0.074574   -0.15822400    0.50007100
Se    5.88166000    6.79723000    4.51804000      0.840639   -1.17101600    0.15708900
Se    8.27468000   11.54322000   15.76635000      0.214762    0.05537000   -0.45927400
Se    5.91307000   14.88222000    2.24312000      0.087258   -0.59591000   -1.14224500
Se   10.20716000   15.03334000   11.22254000      0.336239   -0.50323100   -0.49661900
Se    5.68483000   20.90777000    5.99247000      0.483839   -0.60298900   -0.10380900
Se   10.03537000   20.20691000   15.19253000     -0.927035   -0.12296200   -1.73772500
Se   13.52670000    2.77578000    2.43031000      0.013014   -1.01269900    0.61071200
Se   11.27443000    5.00830000   11.64088000      0.811191    0.73202400   -0.29830700
Se   13.93556000    7.82506000    2.78915000     -0.493538    1.02583500   -0.11267100
Se   10.85676000    9.23881000   14.25227000      0.568109    0.58948500   -0.34377000
Se    9.28648000   13.98425000    4.34848000     -0.446089    0.29401100   -0.39055300
Se   14.68499000   14.43733000    9.60318000     -0.005199   -0.61583100    0.39989300
Se   15.40548000   20.18512000    2.20052000     -1.002663   -0.17023000   -0.25484800
Se   13.35813000   19.90430000   14.13612000      0.374717   -0.39661100   -0.44535900
Se   18.80859000    5.60364000    1.18337000     -0.753623   -0.56516100   -0.31933400
Se   15.03603000    4.75359000   13.86676000     -0.452475   -0.10196800    0.83872000
Se   18.45265000    8.18147000    3.31760000      0.359468   -0.31140600    0.13691800
Se   20.90834000   14.39855000   11.56322000      0.009379    0.08931200   -0.86077000
Se   20.67029000   14.74126000    2.52206000      0.032226   -0.05507000    0.02855800
Se   18.00666000   17.59236000   11.68650000     -0.287623   -0.05072500    0.21719600
Se   17.38117000   22.14015000    4.71166000      0.299415   -0.00418100   -0.02924600
Se   16.59574000    1.62050000   10.51502000      1.599898   -1.27782400    0.93410400
