384
22.54784000 22.54784000 18.93360000
Ge    5.57769000    5.32795000    9.54583000     -0.154332   -0.78547300   -0.14185600
Ge    4.35545000    7.67952000    1.20947000      0.335547    0.07177100   -0.44584900
Ge    3.35296000   11.49183000    7.22140000      0.723782   -0.90382200   -1.01037800
Ge    6.35895000   10.73386000   17.08570000     -0.519341   -0.95218900    0.18051900
Ge    4.31681000   14.59590000   10.95599000      0.712832   -0.80619300   -1.15623600
Ge    8.63645000   17.60278000    1.01997000      0.171136   -0.00212500   -0.50689600
Ge    6.95576000   19.22982000    7.76118000     -0.587994    0.97818600    0.40341800
Ge    4.74026000    1.01539000   16.52162000      1.024721   -0.74161200    1.04450200
Ge    7.99407000    7.83362000   10.19132000      1.431724   -0.80467100   -0.08698100
Ge   11.01122000    5.38941000    0.03235000      0.018865    0.41257900   -0.24227300
Ge   11.92597000    8.67685000    9.15525000     -0.562515   -0.54536400   -0.90451900
Ge    9.76512000   11.99864000    0.00942000     -0.328117    0.06113500    0.37261700
Ge   10.32608000   16.77205000    9.35917000     -0.564552    0.69729500   -0.33447000
Ge   11.79433000   15.48681000    0.07113000      0.399212    0.23120900   -0.91309800
Ge    9.81039000    0.28412000   10.30308000     -0.891129   -0.06893500    0.15770000
Ge   14.54432000   22.31442000    0.90611000      0.452747    0.01785900   -0.07912600
Ge   18.58746000    4.88055000    9.78672000     -0.642503    0.31676500    0.16555900
Ge   18.39799000    8.80358000   17.23538000      0.403285   -0.14759100   -0.66314900
Ge   18.50848000   14.96473000   10.75524000     -0.173838    0.39660700    0.24924700
Ge   17.38336000   12.25768000   17.96463000      0.242042   -0.40372300    0.22025400
Ge   13.20372000   15.80519000    8.43211000     -1.245005   -0.34628800    1.72592800
Ge   16.76406000   15.31043000    0.50027000     -0.049336    0.29532900    0.55387400
Ge   16.12916000    3.76914000    9.88096000      1.940456    0.90900900   -0.61563900
Ge   19.32559000    2.96733000    0.16623000     -0.264488    0.46207300    0.22317900
Ge    1.34780000    3.83840000    9.53452000      0.289475   -0.64237900    0.47911500
Ge   21.35297000    3.87925000    3.82715000     -0.979685   -0.37967400    0.41768800
Ge    0.69635000   10.28041000    9.25982000     -0.604162    0.31754900    0.23772900
Ge   21.92218000    9.73134000   18.57539000     -0.111559    0.43819000   -0.44854400
Ge   20.86901000   15.34260000    8.21993000      0.042403    0.40939600   -0.32054300
Ge    4.37012000   14.63289000   18.05467000     -0.185673    0.87378800   -1.27100000
Ge   19.37114000   22.50413000   10.66474000      0.008130    0.66040800   -0.05229200
Ge   21.70177000   20.28450000    2.83918000      0.817876   -0.37942800   -0.03374000
Ge    4.19659000    7.54608000    6.90523000     -0.120007   -0.75098200    1.29505700
Ge    1.65479000    7.52060000   17.71582000      0.957035    0.43347500   -0.69300400
Ge   20.90387000    9.52346000    3.62177000     -0.472175    0.41873200    1.23506100
Ge    3.11648000   13.17415000   14.88221000      1.735444    0.26974300    1.28371600
Ge    4.86200000   18.58632000    4.73735000     -0.115460    0.17145000    0.62642100
Ge    0.78475000   18.80386000   18.79215000      0.901588   -0.77846300    0.25985100
Ge    3.86515000   18.43665000   10.38681000      0.092283    0.26652700   -0.18198100
Ge    1.96170000    0.97829000   18.23772000     -1.051051   -0.51187500    0.50959400
Ge    9.59590000    2.22398000    7.49489000      0.193758   -0.39592100    0.18887200
Ge    7.68083000    5.70433000   17.12809000     -1.183506    0.00093400   -0.30001500
Ge    7.97156000   10.24381000    3.84617000      0.102820    1.06592300   -0.47567300
Ge    9.84589000    7.93174000   16.36166000     -0.514528   -1.44313500   -0.17676500
Ge    7.03409000   15.65945000    8.71126000      0.236194    0.43903200    0.71808000
Ge    8.99901000   15.39486000   15.66723000      0.520783   -0.08291200    0.72267800
Ge   10.67943000   21.48003000    6.84556000     -0.168289   -0.24564000    0.40191100
Ge   10.54380000   22.52266000   14.03364000     -0.150105    0.64937900   -0.11223200
Ge   11.85333000    7.50268000    4.72860000     -0.204670    0.42810000   -0.05891700
Ge   15.18485000    4.02040000   16.54216000      0.043978    0.10134300   -0.41757400
Ge   14.43867000    9.13958000    6.49931000      0.543783    0.96407800    0.14926600
Ge   15.42629000   12.40721000   15.17124000     -0.660292   -0.14864100   -0.65444900
Ge   12.26372000   14.60047000    5.61176000     -0.934579    1.67724600   -0.66579200
Ge   14.26278000   18.43950000    0.30962000      1.439036   -0.10612000   -0.31214000
Ge   14.79013000    0.26791000    9.63150000     -0.976294   -0.93632400   -0.55715100
Ge   16.89458000   21.35740000   13.93808000      0.536302    0.34386400   -0.60439500
Ge   21.53351000    4.70378000    8.76234000     -0.227480   -0.26508100   -0.41537800
Ge   19.92233000    5.48800000   13.92928000     -0.137727    0.55961000    0.80910000
Ge   19.17654000   10.77863000    7.79134000     -0.260917    0.10433200   -0.19409200
Ge   21.37327000   14.81048000   16.47660000      0.221343    0.29244600    0.04166900
Ge   18.79901000   16.56806000    5.46138000     -0.467186   -0.26482700    0.05558400
Ge   17.35752000   16.86188000   16.69490000      0.303455    0.78308200   -0.24061500
Ge   22.51452000    1.47424000    6.70966000      0.129357   -0.05892000    0.05139000
Ge   18.92218000   20.98564000   17.38365000      0.094770   -0.17445300    0.64157700
Ge    6.88207000    2.74971000    6.34295000      0.945258   -0.30481200    1.83222000
Ge    4.43440000    2.81296000   12.88766000     -0.436544    0.40498700    0.26242000
Ge    0.18798000    9.36475000    5.97183000     -0.049979    0.32484400   -0.23029400
Ge    2.04811000    7.36060000   11.27444000      0.553114   -0.06106200   -0.31389700
Ge    0.64497000   15.67785000    4.20630000     -0.159203    0.07024400   -0.06467500
Ge    2.97338000   17.69883000   15.48003000     -1.048136   -0.81570300    0.12605200
Ge    3.88128000   22.00069000   10.03710000     -1.377185    1.11178800   -0.38665100
Ge    7.86289000   18.43426000   16.20466000      0.287090   -0.17269800    0.19233400
Ge    6.77994000    3.71000000    3.09807000      1.001188   -0.13509400   -1.48981600
Ge    9.43089000    3.38723000   17.28088000     -0.213897   -0.76428000    0.05309600
Ge    8.13225000    7.81407000    4.17529000      0.704439   -0.57445800    0.11157200
Ge    6.91483000    9.69200000   13.77709000      0.908713   -1.38236200   -0.76321900
Ge    6.37378000   14.74053000    4.60242000     -0.172874   -0.65822600    0.80244300
Ge   11.41248000   11.82916000   15.26802000     -0.057015   -0.22853200   -0.37447200
Ge    7.52918000   20.55804000    3.67903000      0.052521    0.15493300    0.45757100
Ge    9.41291000   16.78768000   12.49012000     -0.357554    1.54764700    1.03558200
Ge   12.30243000    1.65818000    5.38393000      0.055371    0.38634900   -0.96964500
Ge   12.66039000    4.20413000   14.38281000     -0.328344    0.01337200   -0.08896700
Ge   17.54578000    4.53845000    5.33038000      0.940303   -1.62661300   -0.10407600
Ge   14.10157000    9.02595000   14.63081000     -0.282675    0.31255500   -0.60935400
Ge   14.91989000   13.27880000    3.48479000     -0.941605   -0.21070100    0.62300800
Ge   13.31934000   15.79912000   12.33475000     -0.225862    0.52019600    0.12658300
Ge   10.72629000   18.69819000    3.73551000      0.582812   -0.02823500    0.78192000
Ge   12.01908000   19.93010000   16.54807000      0.201473   -0.75342100    0.72292100
Ge   22.27596000    5.41208000    5.70503000     -0.049198   -0.13856700    0.47523700
Ge   22.18446000    3.52600000   13.19306000      0.606439   -0.32688100    1.06068500
Ge   19.25020000    8.03045000    7.06908000     -0.504635   -0.60450900   -0.01538100
Ge   17.60250000   10.29979000   12.98181000     -0.144509   -0.18300100   -0.34223800
Ge   19.59565000   17.03034000    0.82116000      0.882281   -0.36945900    0.44357500
Ge   19.28804000   15.96883000   13.93602000      0.335400   -0.75920300   -0.09164000
Ge   19.36885000   20.42394000    5.48016000     -0.184088   -0.05243100   -1.18821200
Ge   21.62928000   21.23093000   13.30851000      0.083390   -0.17336800    0.06140900
Ge    3.64670000    2.66879000    2.98869000     -1.003893   -0.24751400   -0.13862800
Ge    6.05057000    0.25635000   13.25638000      1.127839    0.80179700   -0.31640000
Ge    3.67065000    7.91359000    4.02862000     -0.401083    0.91969300   -1.25944600
Ge    6.85912000    4.74462000   14.47394000     -0.690890   -0.63362700    0.26343000
Ge    4.30000000   12.28607000    2.24885000      0.013022    0.33277100   -0.05380000
Ge    3.94528000   10.85486000   12.13655000     -0.338104   -0.68489000    0.37193300
Ge    3.31590000    0.42575000    6.82895000      0.608893   -0.30886100   -0.41300300
Ge    7.34611000   19.24652000   12.72443000     -0.449883    0.59762000   -0.55601200
Ge   10.35457000    3.22521000    2.56521000      0.936770   -0.08364300   -0.05700200
Ge    9.07298000    4.62468000   12.39203000     -0.702228   -0.27485300    0.08014000
Ge   12.13360000    8.59160000    1.18079000     -0.099304   -1.17106200   -0.26481600
Ge   10.85524000    7.56336000   12.18246000      0.630462    0.39605000    0.35998800
Ge    8.32891000   13.96972000    1.64994000      0.166546   -0.26325800    0.09403900
Ge    8.10453000   12.36834000   11.11783000     -0.851129    1.83148000   -1.34152100
Ge   11.93660000   21.25847000    1.24777000     -0.396873   -0.05170100    0.14638800
Ge   11.21568000   19.10770000   12.74479000     -0.106041    0.42385600    0.26105500
Ge   22.49704000    0.39964000   16.15996000     -0.336134    0.52845000    1.58264900
Ge   12.90298000    2.08231000   10.21563000     -0.861289   -0.73935300    0.72964200
Ge   15.96593000    6.55808000    1.89891000      0.835932    0.64693700    0.94520400
Ge   15.17479000    6.77817000   10.97098000      1.064814   -0.24986200    0.46753800
Ge   18.17977000   11.56241000    1.70202000      0.495245    0.19436300    0.59279400
Ge   16.97406000   17.08531000    9.56578000     -0.722229   -0.62880400    0.01030500
Ge   17.57301000   21.17422000    2.48400000      1.265121    0.30868500   -0.25767000
Ge   14.94724000   19.89111000   10.99307000      0.096386    0.21162900   -0.03158100
Ge   21.62472000    1.73187000    2.31899000      0.486535   -0.36273300    0.48501600
Ge   21.78210000    1.58988000   10.40845000      0.352679   -0.04807400   -0.72006900
Ge    0.67066000    8.55325000    1.91646000      0.350203   -0.27605700   -0.62752500
Ge   21.62318000    8.93972000   13.28322000     -0.424328   -0.06606600    0.06604500
Ge   20.16744000   12.99879000    0.71151000      0.555206    0.40823800    0.55638600
Ge    0.56114000   14.56970000    9.17413000     -0.199035    0.65304700    0.25013000
Ge    2.17888000   19.37136000    4.90033000     -0.833114   -0.10004300   -0.44314700
Ge   19.63608000   19.30726000   10.73270000      0.013848    0.14708800    0.42684900
Se   21.40650000    0.22111000    0.57038000      0.023244   -0.18990800   -0.73359700
Se    1.71374000    1.46674000    8.66456000     -0.872046    0.26123200    0.23784100
Se    2.29716000   10.13620000    2.96462000      1.125874   -0.79819900    0.04992900
Se   22.13194000    6.52110000   12.58063000      0.859204    0.35873900   -0.14437900
Se   22.07736000   12.59300000   18.01603000     -0.166705    0.47719700   -0.01256000
Se    2.15672000   12.70040000    8.92445000     -0.207972   -0.07294800    1.18137600
Se    3.03693000   16.59421000    5.17972000     -0.872624    1.88946000    0.35544800
Se    1.96156000   16.10246000   10.88700000     -0.656747    0.57219800   -0.76985700
Se    4.99736000    2.19696000    1.04158000      0.162911    0.15856300   -0.17769700
Se    6.13653000    4.55489000   12.00362000      0.111204   -0.16708500   -0.27989000
Se    6.40349000    6.28790000    2.14308000      0.232494   -0.49290900   -0.38945300
Se    8.39909000    7.39334000   12.64712000     -0.685731   -0.47375500   -0.21196400
Se    7.89236000   10.03223000    0.07893000     -0.022164   -0.04431800    0.52824600
Se    6.05434000   11.83867000   14.23670000     -0.331308    1.40682200   -0.21787500
Se    5.76292000   20.22984000    1.90179000      0.412690   -0.00854800   -0.12143300
Se    8.73191000   18.54304000   10.65365000      0.036198   -0.24946700    0.40160000
Se   12.09918000    2.09709000    0.66321000      0.385199   -0.79475300    0.04477200
Se   12.72435000    1.79755000   13.11431000     -0.016696    0.40123500    0.09110200
Se   12.54447000    7.53079000   17.80919000     -0.618114    0.10292300    1.17155000
Se    9.88689000    9.59153000   10.39299000      0.076148    0.42180200    0.17007600
Se   13.03784000   13.18041000    1.65748000     -0.443936    2.00742800    1.99110000
Se   12.64255000   10.76984000    7.93453000     -0.071908    0.13841000   -0.28783000
Se   13.96421000   16.71866000    2.54374000      0.013324    0.19955500   -0.50410500
Se   12.56703000   17.45364000   10.32517000      0.600817    0.36726500    0.01450600
Se   18.85477000    3.56239000    2.94159000      0.276448    0.09249600    0.99165000
Se   16.29630000    1.55294000   13.16883000      0.013164    0.43559600    0.12225200
Se   16.38108000    7.77305000   18.16977000     -1.193261    0.27232800   -0.35527400
Se   17.73223000    4.96174000   12.67155000      0.021133    0.43519100   -0.48922100
Se   18.36439000    9.14651000    0.94556000      0.282983    0.49667000   -0.50188400
Se   17.17857000   14.54530000    7.02597000      0.560304    0.26296700    0.06768200
Se   21.13006000   19.44311000    0.59146000     -1.289993    0.80055500    0.31926000
Se   15.93615000   18.93003000    8.05269000      0.075547    0.33292000   -0.03975300
Se    1.52965000    2.03322000    1.74775000     -0.019252   -0.37638100   -0.37539200
Se    5.56747000    7.78765000    9.98348000     -1.215059    0.25737800    0.58028800
Se    6.31465000   10.41083000    1.88320000      0.319511   -0.07240300    0.43714300
Se    4.76709000   12.02342000   10.03529000     -0.206281   -0.63322400   -0.46076100
Se    2.89201000   15.71990000    0.99018000     -0.200473   -1.00365900    1.05152900
Se    2.45348000   13.07953000   12.64619000     -0.202571   -0.14879400   -1.17241500
Se    3.92747000   21.65229000   18.61851000     -0.736471    0.16419300   -0.82554100
Se    5.50691000   20.44610000   10.35357000      1.867120   -1.73886800    0.08383000
Se   12.59702000    5.08656000    2.32919000     -1.070368    0.01314200    0.44195600
Se    6.80367000    5.34921000    7.37050000     -0.014186   -0.36904300    0.25276900
Se   11.92654000   11.02205000    1.11617000     -0.592607   -1.43561500    0.05607900
Se    6.83110000   10.63396000   10.19908000     -0.544184   -0.37955400    0.03153600
Se   10.26221000   15.62581000    1.96740000     -0.769344   -0.10420700    0.24153700
Se   12.73623000   12.83064000   13.22662000     -0.626847   -1.51255600   -2.52583000
Se   10.49558000   21.19161000   18.07078000     -0.152590    1.06936600    0.15333400
Se    8.27580000   22.04085000   12.27513000      0.443502    0.22411800   -0.11488900
Se   14.53556000    5.04672000    0.77129000      0.537860   -0.60054000   -1.68196300
Se   17.10170000    6.77309000    8.62929000      0.245520   -0.59267600   -0.10325300
Se   15.45427000   10.58950000   18.45279000     -0.900027   -0.02564500    0.50460700
Se   15.25894000   11.77327000   12.76090000      0.326474    0.04908300    0.45382300
Se   18.04561000   15.40559000    3.05690000      0.302725   -0.71540600   -0.74174700
Se   16.27812000   11.17538000   10.04500000      0.472627    1.55646700    0.29101200
Se   18.25606000    0.15620000    0.58867000     -0.857805   -0.66768500    0.64707700
Se   15.00038000   21.08486000    7.39478000      0.447208    0.51498700   -0.00354600
Se   22.01936000    4.38299000    1.50118000      0.871094    0.21660000   -0.99419200
Se   20.83615000    3.95355000   11.13465000     -0.286840    0.30699200   -0.30679900
Se   21.02576000    6.33306000    0.60124000     -0.307046    0.05834200   -0.00403200
Se   21.21126000   11.00405000   11.89031000     -1.315329   -0.75409400   -0.51336000
Se   18.99470000   14.78314000   18.25570000      0.343077   -0.32696700    0.34382200
Se   21.03652000   16.76898000   12.40204000      0.330034   -0.10945700   -0.13431500
Se   21.55671000   22.50652000    4.14214000     -0.943868    0.04569600    0.22008900
Se   17.50626000   20.88360000   10.88296000     -0.452915   -0.54217700    0.35943100
Se    3.15627000    5.15079000    8.82597000      0.412607    0.72366200   -0.62656300
Se   21.55614000    3.31339000   17.32609000      0.715315    0.34598100   -0.70239800
Se    2.69282000    9.16020000    8.30059000      0.449756    0.42169300   -0.40060800
Se    1.75792000   10.28386000   16.83472000      0.037617   -0.75789800    0.36315300
Se    4.79909000   17.78160000    8.20189000     -0.191069   -0.42953800    0.01459900
Se    0.33556000   17.95795000   15.36960000      0.412357   -0.22975500    0.32260900
Se    0.98516000   18.90130000   12.79929000      0.187408    0.33681900    0.24268700
Se    1.22984000   20.61408000   17.12780000      0.112373   -0.02640000    0.39505900
Se    5.24236000    3.56299000    4.91970000     -1.807440    0.98386200    0.35670000
Se    4.94288000    5.76779000   17.82859000      0.604667    0.96097200   -0.13159700
Se    5.14630000    9.30450000    5.47776000      0.227400    1.18673500    0.23957000
Se    3.74443000    6.89703000   15.84231000      0.051214   -0.16055200    0.79664700
Se    6.87873000   14.48322000   11.38996000     -0.337542    0.25314200    0.61186800
Se    6.61463000   17.11942000   17.97597000     -0.148409   -0.70511400    0.26791100
Se    9.60793000   18.17367000    6.18793000      0.900047    0.46187100    0.34880100
Se    5.76579000   20.22286000   18.14092000      0.302413   -0.72196500   -0.09355300
Se    9.92244000    2.78174000   10.29409000      0.375956   -0.65329300   -0.57615400
Se   12.52401000    3.98251000   16.91585000      0.184192   -0.42221000   -0.26948000
Se   13.48086000    6.99377000    6.44314000     -0.026088   -0.76124200    1.12875400
Se   13.59041000   11.19260000   16.32685000      0.755281   -1.28849400    0.38005400
Se   11.00824000   14.71596000    7.88116000      0.720947   -0.43850800   -0.10904500
Se   14.30805000   15.75155000   17.02664000     -0.643137   -0.65106100    1.63805300
Se   12.21613000    0.88408000    7.69930000     -0.496195   -0.12988800    0.57283400
Se   14.56709000   20.79693000   17.82602000     -0.478901    0.27984900   -0.30172600
Se   13.99703000    4.24438000   10.39918000     -1.953227    1.01244800    0.33578000
Se   20.38822000    1.81360000   15.69970000      0.621502    0.41179600    0.32636800
Se   18.99287000   10.13034000   10.71050000      0.497712    0.79788700    0.45000800
Se   17.46357000   10.94145000   15.80094000      0.352104   -0.63765400   -0.42266100
Se   14.38221000   16.38397000    6.64486000      0.630920    0.70254600   -1.67572700
Se   20.10544000   13.66620000   14.57469000      0.593564   -0.42702100    0.13301600
Se   19.15760000   21.38530000    7.63548000     -0.364471    0.66791900    1.46988400
Se   18.93859000   18.90810000    3.07744000     -1.042912    0.49405500   -0.28125900
Se    5.33257000    1.02615000    8.14982000      0.154245    0.38099100   -0.40154300
Se    3.60066000    2.76630000   18.00731000      0.567010    0.71901400    0.17758300
Se    8.41441000   10.17912000    7.25926000      0.470393   -1.00937400   -0.05412500
Se    4.03669000    9.90859000   18.47330000     -0.638817   -1.01892000    0.42676600
Se    6.83255000   17.39748000    6.06187000     -0.671316   -0.90706800   -0.75605400
Se    4.68622000   12.23203000   18.34790000      0.403846    0.18259600    0.55199100
Se    1.48068000   19.59324000   10.61028000      0.701654    0.50921600   -0.52199200
Se    2.86649000   18.65065000    1.59796000     -1.227822    1.14246200    0.45739700
Se    8.40392000   22.06322000    8.54269000      0.365485    0.24140700   -0.41086300
Se    8.56981000    3.40587000    1.01268000     -0.124643    0.08146300   -1.13631300
Se    9.83930000    5.63982000    8.59396000      0.128139   -0.14202900   -0.09048500
Se    8.56649000    6.84964000    0.09472000      0.680985    0.08929000   -0.04402900
Se    8.27999000   12.03900000    5.59146000      0.046566   -0.26033500   -0.10929000
Se    7.64774000   14.65992000   17.80491000     -0.204387    0.65518400    0.05181200
Se   11.55040000   21.36692000   10.74025000      0.350544    0.18386700    0.28334100
Se   10.85257000   13.54684000   17.28734000      0.115831    0.99496100    0.36172800
Se   16.16605000    0.82422000    7.49487000     -0.669605   -0.98952700    0.32538100
Se   16.29438000    3.35168000    0.87641000     -0.095990    0.05999100   -0.20644500
Se   15.91954000    4.55296000    7.53260000      0.253659    0.53406500   -0.00083200
Se   14.86308000    7.20787000   16.09804000      0.552498   -0.63481500    0.88735000
Se   15.83416000    9.16048000    9.33784000     -0.218986   -0.82133900   -0.89495400
Se   14.30009000   12.93728000   18.79926000      1.517711    0.18712500   -1.48904400
Se   13.31489000   18.80359000    5.61605000     -0.569501    0.19481000    0.15815100
Se   17.24389000   17.89245000    0.05057000     -0.332502   -0.39249000   -0.14989300
Se   20.31423000    2.00254000    8.20605000      1.190587    0.44968800    0.22914600
Se    0.64472000    0.71768000   13.94386000      0.519718   -0.23522800   -1.38103400
Se   20.20764000    7.70771000    9.33858000      0.858715   -0.25445800    0.10408300
Se   22.05138000    7.92670000   16.84180000     -0.970921   -1.03478500   -0.76993900
Se   21.32457000   11.35861000    6.75267000     -0.005870   -0.34242700    0.53999500
Se   20.22802000   11.30969000   17.02671000      0.316294   -0.22594000    0.28103700
Se   18.93511000   17.25649000    8.01469000      0.771849    0.00212100   -0.10012900
Se   20.01183000   16.94058000   16.03097000     -0.313923    1.02451400    0.20636100
Se    3.90130000   22.30649000   12.58004000     -1.411953   -0.03466000   -0.52188600
Se    2.87201000    1.63156000   15.19338000     -0.913012    0.58025500   -0.62496200
Se   22.41303000    7.64762000    8.15902000     -0.404795   -0.05448400    0.57666500
Se    0.77146000   10.20696000   14.53050000      0.404353   -0.03899800    0.35081600
Se    3.62470000   14.45560000    4.83596000      1.344615   -1.55162500    0.14292000
Se    1.85636000   13.95163000   16.70748000      0.549473    0.09900400    0.44826000
Se    0.41092000   16.97364000    8.13849000      0.073346   -0.39838500    0.38479100
Se    2.64376000   20.09866000   14.54685000      0.276062   -0.20467700   -0.24458000
Se    6.83786000    0.77598000    3.42721000      0.129980   -0.60170200   -1.33241900
Se    7.56616000   22.40534000    1.12394000     -0.587931    0.82706300    1.36438200
Se    9.16000000    7.88879000    6.43744000     -0.077842    0.69471600    0.24763000
Se    4.31475000    4.19088000   15.17088000      0.326877    0.22025900   -0.69460400
Se    5.15394000   12.07220000    4.71080000      0.207658    0.42846000   -0.29343200
Se   10.06594000   13.55761000   13.93049000     -0.615845    0.20192300   -0.14995600
Se    8.26655000   17.76548000    3.89463000     -0.537648    0.00732900    0.00485900
Se    7.17433000   16.80970000   13.98615000      1.170581   -0.31952300    1.17943900
Se   14.08952000    0.46978000    3.80264000     -0.097993   -0.08588200    0.61230800
Se   13.56244000    0.06815000   15.92234000      0.109983    0.05645800    0.61398700
Se   12.28331000    9.92219000    4.90855000     -0.066262    0.39284600   -0.00620000
Se   11.61443000    6.68567000   14.83976000      0.300308   -0.94935600   -0.89910300
Se   13.91820000   12.99872000    5.76624000      1.123881   -1.75523200   -0.19219600
Se   13.44060000   14.19575000   14.81363000      1.105345    1.67504500    1.36253600
Se   11.86012000   18.83627000    7.53027000     -0.276700   -0.15538500   -0.54937100
Se   12.17540000   18.27330000    1.44487000     -0.954968    0.88406600   -0.07614200
Se   19.60552000    2.00089000    5.09685000      0.188779    0.15184300   -0.47773900
Se   18.24827000    0.61396000   16.32840000      0.122449    0.70042800   -0.08329700
Se   19.58810000    5.40495000    6.46061000     -0.083534    0.55031100    0.03770800
Se   18.96643000    6.10103000   16.69730000      0.039398   -0.58363900   -0.75218900
Se   19.33860000   12.01788000    4.16149000     -0.277727   -0.66313000   -0.70278000
Se   17.50989000   14.52655000   13.02892000     -0.825725    0.03399500   -0.19257700
Se   17.10295000   18.72514000    4.99745000      1.464857   -0.37726700    0.01397700
Se   17.46522000   19.62830000   15.94061000     -0.234952   -0.02560600   -0.28980000
Se    2.13085000    6.84934000    5.61826000      0.318440    0.39350100    0.31811500
Se    2.00594000    6.52118000   13.61030000     -0.484299   -0.23769100    0.38600400
Se    1.50572000   11.68594000    4.83364000     -0.183572   -0.11323900    0.68428400
Se    3.79863000   10.78553000   15.11055000     -0.185918    0.23202100    0.41905500
Se    5.71126000   13.95010000    7.74105000      0.234669   -0.43333000   -0.44206600
Se    2.79118000   17.20711000   17.97935000      0.657767    0.22732100   -1.40450900
Se    1.81076000   19.89090000    7.43319000      1.503641   -1.11668100    0.76786900
Se    6.59082000   21.07426000   14.78859000      0.534075   -0.42768400    0.84031000
Se    9.54271000    0.59514000    5.21678000     -0.304934    0.13880300   -0.40725400
Se    7.13572000    2.08854000   17.62376000      0.561651    0.12038000   -0.42381000
Se   13.19807000   11.96389000    9.85168000      0.354737    0.55983000    0.37178500
Se   10.12657000   10.20596000   16.99442000      0.298586    1.70076100    1.58344300
Se    8.35441000   13.37187000    8.73459000     -0.028954   -0.18482200   -0.67597600
Se   11.79895000   17.07489000   14.21405000     -0.482654   -0.47121500   -0.38832700
Se   12.07580000   20.87201000    4.70691000      0.464721   -0.40947500   -0.60362000
Se   10.12033000   17.70173000   17.79626000     -0.052731   -0.16139600   -0.60127800
Se   10.69188000    4.48028000    6.72785000      0.083992    0.12934200    0.33633100
Se   18.10267000    3.85125000   16.98894000     -0.196339    0.69031100   -0.43222400
Se   16.87849000    8.46612000    5.04569000      0.076974   -0.08683800    0.22868900
Se   16.57172000    8.03635000   12.98785000     -0.797535   -0.12580600   -0.07474000
Se   17.65133000   10.93122000    5.44182000     -0.149748    0.46217400    0.56093300
Se   15.03900000   17.38658000   15.70266000      0.086003    0.87663400   -0.14872500
Se   15.89702000    2.22910000    4.94965000      0.482037   -0.28191000   -0.58263200
Se   18.53510000    2.72576000   13.21092000     -0.696387    0.02135700   -0.19645600
Se    1.21282000    3.26825000    5.15392000     -0.253529   -0.31346900    0.43081600
Se    0.19940000    4.95317000   15.56648000     -0.550264   -0.59411300    0.52893700
Se   18.76669000   13.49446000    8.48666000     -0.432923   -0.65400200   -0.62077700
Se    0.07864000   13.31632000   13.52024000     -0.936663   -0.58015400    0.31757000
Se   21.16365000   14.78226000    5.72835000     -0.125703    0.05469400    0.13476900
Se   20.18063000   19.18903000   13.24911000     -0.286773    0.21220700    0.09917700
Se   20.38795000   19.39108000    7.84528000      0.528345   -0.33520400   -0.12705400
Se   21.19883000   20.83685000   16.04904000      0.326148   -0.60134600    0.12838500
Se    3.96631000    0.51747000    4.12069000      0.241369   -0.37864800    0.51751300
Se    7.14311000    1.87446000   14.98393000      0.168075    1.00752000    0.11482300
Se    2.37126000    6.11497000    1.10055000     -0.433305    0.05425400   -0.36145600
Se    4.47657000    7.84469000   12.29945000      0.448324    0.24155600   -0.61554400
Se    1.97675000   13.56569000    1.58805000     -0.037169    0.25667900    0.27484100
Se    5.22450000   14.71261000   15.26110000     -1.186610   -0.45347800   -0.01241300
Se    5.47031000   17.74897000    2.41190000     -0.119824    0.40783600   -0.13391400
Se    5.37939000   17.23915000   12.10849000     -0.821581    0.78461000   -0.71425800
Se   10.55161000    0.73514000    2.78495000      0.085418    0.23032000    0.38672500
Se   10.79716000    1.07684000   16.84382000      0.019818   -0.21724800    0.15656100
Se   10.37483000    7.20574000    2.74963000     -0.261300    0.20960500   -0.96879800
Se    7.22778000    8.23954000   15.86236000      0.030635   -0.29140900    0.30505900
Se   10.56236000   11.24554000    3.71465000     -0.383327   -0.34190100    0.23050200
Se    9.64614000   11.33415000   12.43449000      1.278051   -0.58131500    0.71912400
Se    9.62080000   20.15857000    1.98361000     -0.334086    0.20495200   -0.17197700
Se   14.82932000   18.09705000   13.03800000      0.302339    0.40792500   -1.24371600
Se   14.16170000    3.48066000    5.91296000     -0.833905   -0.04331600    0.08547600
Se   15.73864000    1.24344000   15.85393000     -0.561560   -0.07108400    0.09108000
Se   15.73612000    5.71164000    4.51241000     -0.348031    1.60620700   -1.07401500
Se   13.60882000    8.62381000   10.89458000     -0.899532    0.45968800    1.04310100
Se   15.87330000   11.37707000    2.55615000      0.037061   -0.83553800   -0.05253100
Se   16.61235000   14.11486000   16.42658000      0.095068    0.13568100   -0.10970200
Se   15.62111000   15.51481000    3.83040000      0.846402    0.50352900    0.33866400
Se   14.32172000   21.76161000   12.90800000      0.383968   -0.28232400   -0.50273600
Se    0.39695000   21.28050000    6.39623000     -1.383997    1.09200500   -0.85531300
Se   19.58295000    0.14553000   13.15415000     -0.216358   -0.07349800    0.55832200
Se   22.17398000    7.12270000    3.70172000     -0.368148    0.29441700   -0.10889200
Se   19.43171000    8.05974000   13.80667000     -0.159739    0.52561700    0.34516200
Se    1.07405000   13.77574000    6.20321000     -0.772353    0.58253900   -0.32031900
Se    0.59724000   15.58237000   14.57306000     -0.536562    0.34308500    0.28608600
Se   21.92850000   18.09530000    3.98758000      0.545485    0.24628200    0.64152300
Se   21.73626000   21.45854000   10.81148000      0.327981   -0.37727400   -0.89309300
Se    3.15534000    5.20461000    3.11378000     -0.077506   -0.69269100    0.57105000
Se    1.81530000    3.30131000   11.94077000      0.310433   -0.00160500   -0.29815900
Se   22.10591000   11.02043000    1.98633000     -0.882259    0.26170900    0.25548900
Se    1.47889000    9.79780000   11.76540000      0.492469    0.39870900   -0.60610500
Se   22.17708000   16.55549000   18.67615000     -0.369192   -0.17070400   -0.40182300
Se    3.37471000   15.85024000   12.82879000      0.223296    0.71489200    1.47057000
Se    1.59148000   20.75807000    2.31004000      0.419383   -0.17836400    0.48722000
Se    4.87618000   19.31826000   15.36155000      0.446093    0.73454400    0.18932100
Se    8.97746000    4.46488000    4.12753000     -0.917337    0.03782700    1.18502700
Se    9.87558000    3.01209000   14.09710000     -0.060225   -0.13994600    0.54068900
Se    5.89036000    6.76045000    4.49876000      0.198316   -0.83140900    0.21446000
Se    8.31701000   11.48924000   15.85644000      0.356057    0.18906700   -0.77802600
Se    5.94770000   14.92003000    2.18195000     -0.023336   -0.56259700   -0.76075500
Se   10.20656000   15.10995000   11.20295000      0.647303   -1.89903500   -0.70624000
Se    5.64568000   20.87051000    6.00924000      0.550754   -0.47509000   -0.09927300
Se   10.03270000   20.24188000   15.17185000     -0.452104   -0.32377400   -1.55290900
Se   13.56418000    2.73299000    2.47666000     -0.457270   -0.68541100    0.19063100
Se   11.27758000    5.06350000   11.63510000      0.672764    0.51484400   -0.50536600
Se   13.93812000    7.85630000    2.80898000     -0.372428    0.88241800   -0.08435600
Se   10.86680000    9.26615000   14.25745000      0.559163    0.58954900   -0.49011800
Se    9.30114000   13.98686000    4.36046000     -0.557075    0.17871500   -0.32476000
Se   14.63999000   14.39582000    9.61026000      0.150819   -0.77918000    0.55177900
Se   15.45309000   20.20859000    2.20081000     -1.363393   -0.30125700   -0.33970600
Se   13.37497000   19.85940000   14.11620000      0.333545   -0.36144200   -0.14500200
Se   18.77679000    5.58069000    1.22767000     -0.158218   -0.39485800   -0.58244700
Se   15.00932000    4.79307000   13.88511000     -0.249857   -0.18024100    0.70725500
Se   18.49507000    8.19086000    3.24749000      0.197725   -0.33193400    0.47325600
Se   20.89288000   14.42713000   11.58803000     -0.010056    0.02727400   -1.08464000
Se   20.68925000   14.71153000    2.48430000     -0.045348   -0.02711000   -0.05859600
Se   18.02627000   17.63640000   11.71513000     -0.564299   -0.25468400    0.00716200
Se   17.44165000   22.10755000    4.67717000      0.190012    0.12807700   -0.28109800
Se   16.54034000    1.58991000   10.53653000      1.876243   -1.05004000    0.83170100
