384
22.54784000 22.54784000 18.93360000
Ge    5.64230000    5.28323000    9.43695000      0.425074   -0.34374000    0.55950000
Ge    4.34965000    7.70462000    1.19704000      0.297746    0.27493600   -0.39211900
Ge    3.43125000   11.46129000    7.18101000      0.203218   -0.25860800   -0.39840400
Ge    6.19193000   10.81330000   17.00822000      0.148176   -1.21827800   -0.13810200
Ge    4.35538000   14.59809000   10.88069000     -0.219852   -0.59561100   -0.62120500
Ge    8.70366000   17.55631000    1.01233000     -0.069884    0.21330000   -0.54272000
Ge    6.76277000   19.36537000    7.69405000      0.046273   -0.10451600    0.84970100
Ge    4.73761000    1.08138000   16.41407000      0.817817   -0.35471300    1.23185600
Ge    8.17173000    7.85809000   10.17206000     -0.119370   -1.26381900   -0.40467200
Ge   10.88913000    5.37152000    0.04742000      0.108821    0.38377800   -0.09877000
Ge   11.96278000    8.69703000    9.17376000      0.105736   -0.53131000   -0.98741000
Ge    9.73120000   11.93821000   18.91688000     -0.042031   -0.00236600    0.34467300
Ge   10.30357000   16.66738000    9.37493000     -0.486279    1.82711600   -1.25910300
Ge   11.76709000   15.57654000   18.92904000     -0.216234    0.08973900   -0.71387200
Ge    9.68706000    0.23395000   10.26698000     -0.248098    0.03829900   -0.09236300
Ge   14.47409000   22.39519000    1.01990000      0.266731    0.00797900   -0.11068400
Ge   18.50345000    4.95124000    9.80822000     -0.086513   -0.06567100    0.44444100
Ge   18.31649000    8.74359000   17.18164000      0.437847   -0.17233900   -0.57174400
Ge   18.41400000   14.99424000   10.78153000     -0.107044    0.66492200    0.06253900
Ge   17.47895000   12.22025000   18.04117000     -0.194505    0.13850300   -0.61271500
Ge   13.18049000   15.75474000    8.45184000     -0.519391    0.08079700    0.91812200
Ge   16.79793000   15.35281000    0.64592000     -0.045635   -0.09409500    0.27043800
Ge   16.15916000    3.79534000    9.92968000      1.890885   -0.14397600   -0.29370400
Ge   19.30346000    2.92373000    0.17646000     -0.041576    0.74929100    0.22526200
Ge    1.41641000    3.70705000    9.47893000      0.313120    1.68393200    1.03579500
Ge   21.37458000    3.73354000    3.87122000     -0.756599    0.47789600    1.02725000
Ge    0.74221000   10.33064000    9.29325000     -0.817216    0.56038200    0.44876500
Ge   21.87779000    9.75130000   18.50280000     -0.171198    0.43442800   -0.01146300
Ge   20.75918000   15.34486000    8.11511000      0.607613    0.02530400   -0.14106400
Ge    4.40821000   14.62256000   18.09419000     -0.119411    1.15183400   -1.13972500
Ge   19.28679000    0.03553000   10.60748000      0.946311    0.85305600   -0.14523300
Ge   21.68840000   20.08873000    2.82348000      0.904426    1.42641800    0.76934500
Ge    4.20744000    7.46424000    6.84206000     -0.307507   -0.57576000    1.22347700
Ge    1.75902000    7.63720000   17.76672000      0.626094    0.34684600   -0.73165500
Ge   20.86429000    9.62347000    3.69831000     -0.184308    0.42039500    0.87919600
Ge    3.25996000   13.23461000   14.88411000      0.873676    0.05617800    0.95002600
Ge    4.98856000   18.61984000    4.77805000     -0.981704   -0.27375900    0.09064600
Ge    0.74719000   18.78872000   18.87962000      1.065624   -0.63398000    0.01216700
Ge    3.82570000   18.39572000   10.29221000     -0.565805    0.85798600    2.08566100
Ge    1.91998000    0.92572000   18.09937000     -0.584752   -0.53989800    0.49844400
Ge    9.68549000    2.23496000    7.39239000     -0.083864   -0.57635100    0.59744100
Ge    7.64856000    5.68808000   17.10353000     -1.229388    0.28549700   -0.27137500
Ge    8.08609000   10.32745000    3.81605000     -0.206458   -0.21591500   -0.20863000
Ge    9.80848000    7.86172000   16.37095000     -0.118711   -0.83696100   -0.09791900
Ge    7.06416000   15.62923000    8.93932000      0.142450   -0.35045500    0.17997400
Ge    9.02624000   15.33528000   15.67427000      0.417595   -0.00693700    0.99922800
Ge   10.82745000   21.61516000    6.87787000     -0.675314   -0.95248100    0.24662700
Ge   10.53445000    0.04980000   13.95639000     -0.042749    0.70223500   -0.17272900
Ge   11.87698000    7.60265000    4.81566000     -0.591067   -0.60892400   -0.17526200
Ge   15.14991000    3.97362000   16.50346000      0.180556    0.06421900   -0.19483200
Ge   14.38373000    9.11531000    6.50754000      0.968185    0.79355200    0.08720200
Ge   15.26114000   12.41332000   15.07054000      0.094358    0.91070500    1.41362700
Ge   12.20652000   14.53651000    5.50670000     -0.530752    1.31759800   -0.39755200
Ge   14.30888000   18.44401000    0.31597000      1.083495    0.02274200   -0.01278100
Ge   14.70125000    0.29074000    9.61266000     -0.335267   -1.28248300   -0.91909000
Ge   16.94629000   21.37786000   13.95962000      0.767280    0.36512100   -0.50196800
Ge   21.56102000    4.57003000    8.64591000     -0.141813   -0.27144100    0.06497700
Ge   19.88325000    5.45860000   13.91685000      0.252994    0.45060100    0.88354900
Ge   19.16737000   10.75497000    7.79183000     -0.223268    0.18236500   -0.45600900
Ge   21.39472000   14.86737000   16.45421000     -0.063286   -0.11368900    0.27849900
Ge   18.75746000   16.61281000    5.53884000     -0.370737   -0.59841400   -0.36734100
Ge   17.36486000   16.89930000   16.70178000      0.017143    0.40138400   -0.68511300
Ge   22.41344000    1.45914000    6.75223000      0.011358    0.12257100   -0.36183500
Ge   18.87751000   20.92964000   17.38832000      0.659398    0.18731500    0.92930800
Ge    6.71116000    2.71114000    6.47610000      0.926411   -0.44538300    1.37258100
Ge    4.57567000    2.86217000   12.91005000     -0.589674   -0.03466100    0.39089200
Ge    0.27233000    9.51350000    6.07116000     -0.053262   -0.15306000   -0.33567000
Ge    2.06970000    7.32049000   11.20685000      0.420980   -0.14674800    0.13485600
Ge    0.60891000   15.69336000    4.21273000     -0.187850   -0.20140900   -0.00819400
Ge    2.90525000   17.68151000   15.43643000     -0.572796   -1.79715400    0.27129500
Ge    3.74733000   21.97624000   10.00565000     -0.224391   -0.06129900    0.33958000
Ge    7.74706000   18.68268000   16.11481000      0.607220   -0.69658200    0.30384500
Ge    6.72175000    3.69229000    3.05494000      0.677923   -0.15675400   -0.75114300
Ge    9.33041000    3.37443000   17.19097000      0.172139   -0.59731400    0.04196900
Ge    8.18312000    7.63660000    4.16511000      0.363818    0.69593300    0.06724600
Ge    6.99212000    9.65004000   13.73756000      0.568211   -0.60933000   -0.29215300
Ge    6.37691000   14.63824000    4.58736000     -0.442808   -0.37203700    0.38436000
Ge   11.43981000   11.83522000   15.20170000      1.101453   -0.39425000    0.08963200
Ge    7.45539000   20.57050000    3.73720000      0.282105    0.04451600    0.56661100
Ge    9.46532000   16.74332000   12.51694000     -0.669760    2.20609200    1.44536800
Ge   12.34968000    1.70973000    5.21723000     -0.220585    0.19731000   -0.14924700
Ge   12.69394000    4.22432000   14.42718000     -0.759754   -0.07324500   -0.05858800
Ge   17.66724000    4.50906000    5.40117000     -0.633112   -1.16418400   -0.75275200
Ge   14.14811000    9.05372000   14.63819000     -0.377244    0.48974800   -0.73414500
Ge   14.93929000   13.23504000    3.46211000     -1.422498    0.98421400    1.38821000
Ge   13.30775000   15.75195000   12.36991000     -0.046177    0.31356200   -0.07546100
Ge   10.76714000   18.75361000    3.72158000      0.305025   -0.20468500    1.03142900
Ge   12.06170000   19.92670000   16.63665000      0.007650   -0.81350200   -0.02822000
Ge   22.31977000    5.48662000    5.72174000      0.005535   -0.12571900    0.43357200
Ge   22.21494000    3.55819000   13.12466000     -0.153111   -0.21904000    1.05575700
Ge   19.35509000    7.97055000    7.07792000     -0.395488   -0.23233700   -0.51786300
Ge   17.41811000   10.33554000   12.82841000      0.420355   -0.16493400    0.05856300
Ge   19.61720000   17.04770000    0.70747000      0.918221   -0.53740800    0.50699800
Ge   19.30846000   16.01561000   13.87279000      0.573181   -0.51215400    0.06153100
Ge   19.36157000   20.29143000    5.54088000     -0.186050    0.63353700   -0.77071700
Ge   21.59062000   21.17479000   13.40656000      0.458795    0.30859800    0.00208800
Ge    3.55256000    2.63458000    2.94930000     -0.960051   -0.38524700    0.02654600
Ge    6.11386000    0.32905000   13.20687000      0.088356    0.00100600   -0.37327800
Ge    3.54429000    8.05422000    3.89064000      0.350045    0.65654600   -0.50024300
Ge    6.77058000    4.65107000   14.52966000     -0.489544   -0.60500200    0.16262700
Ge    4.37414000   12.23671000    2.22665000     -0.117791    0.42271600    0.18721400
Ge    3.85888000   10.86686000   12.13701000     -0.001614   -0.81194400    0.42256900
Ge    3.30709000    0.49817000    6.81415000      0.760755   -0.37228000   -0.39347300
Ge    7.38282000   19.35438000   12.79653000     -0.413621    0.20183900   -0.95331600
Ge   10.31424000    3.17411000    2.57215000      0.569764    0.56878800   -0.44138300
Ge    9.03139000    4.60158000   12.34557000     -0.063117   -0.26256900   -0.15077700
Ge   12.26973000    8.60633000    1.19441000     -0.523323   -0.67733800   -0.34366800
Ge   10.92190000    7.64362000   12.15925000      0.565027    0.10183400    0.64986700
Ge    8.31874000   13.92647000    1.68285000      0.375828   -0.27845100    0.00545000
Ge    8.06253000   12.43114000   11.10539000     -0.697831    0.83239900   -1.39349400
Ge   11.88220000   21.18680000    1.20719000      0.141494    0.01168900    0.60212900
Ge   11.25211000   19.21478000   12.84485000     -0.583902    0.15558400   -0.22418800
Ge    0.07282000    0.30074000   16.22360000     -0.156311    1.99057300    0.49709100
Ge   12.95456000    2.05334000   10.31467000     -1.382953   -0.85136300    0.81214700
Ge   15.96337000    6.58677000    1.90818000      0.576239    0.67377600    0.95599400
Ge   15.12068000    6.70305000   10.97071000      1.224609   -0.49111700    0.60813000
Ge   18.29577000   11.50946000    1.74866000     -0.260161    0.72023700    0.66988200
Ge   16.89984000   17.09077000    9.55300000     -0.090217   -0.57996800    0.19537700
Ge   17.69647000   21.14868000    2.29479000      0.222849   -0.12968400    1.33719700
Ge   15.11080000   19.87065000   11.04846000     -0.085497    0.34414600   -0.12598800
Ge   21.64701000    1.76038000    2.35517000     -0.006408   -1.31091400    0.05359700
Ge   21.98898000    1.57105000   10.40308000     -0.153640   -0.09455900   -0.23134400
Ge    0.75439000    8.42554000    2.00559000     -0.273158   -0.27591100   -0.72186600
Ge   21.67854000    8.93235000   13.32646000     -0.413274    0.34068900    0.18924200
Ge   20.22064000   12.88532000    0.67699000      0.420233    0.82006600    0.82394400
Ge    0.49426000   14.68605000    9.15348000     -0.045326   -0.00352900    0.23471500
Ge    2.22050000   19.56816000    4.94557000      0.009407   -0.52279200   -1.42367700
Ge   19.61881000   19.28383000   10.63608000      0.265857    0.39865100    0.91761200
Se   21.52540000    0.27468000    0.52224000     -0.239617   -0.00687600   -0.58751300
Se    1.73995000    1.58595000    8.63164000     -0.343750   -1.47934600   -0.31397600
Se    2.31308000   10.15487000    2.94540000      0.846110   -0.69726300    0.05556500
Se   22.17140000    6.61789000   12.61224000      1.192832   -0.02532300   -0.11276200
Se   22.10131000   12.67595000   18.09323000      0.154715    0.23154000   -0.43223500
Se    2.16238000   12.65100000    9.01320000     -0.332056    0.15387100    0.59860400
Se    2.93464000   16.67212000    5.16357000     -0.577206    1.43092600    0.08917800
Se    2.07997000   16.12005000   10.83337000     -0.721783    0.59952200   -0.35343400
Se    4.98159000    2.17922000    1.00759000      0.054056   -0.03372500    0.25298900
Se    6.16004000    4.50857000   11.90608000      0.138767    0.08287500   -0.23931800
Se    6.29592000    6.34497000    2.12585000      0.559660   -0.71185200   -0.35228600
Se    8.44569000    7.40185000   12.59601000     -0.428221   -0.49514800   -0.01268100
Se    7.90154000    9.99784000    0.05211000     -0.238080   -0.04156000    0.01380700
Se    5.95954000   11.83664000   14.19789000      0.052182    0.30567200   -0.41120900
Se    5.70878000   20.32748000    1.99708000      0.368824   -0.27391900   -0.31643600
Se    8.73743000   18.45332000   10.72223000      0.261785   -0.26192900    0.49304000
Se   12.09210000    2.12935000    0.61769000      0.510356   -0.67448300    0.50123600
Se   12.75906000    1.76945000   13.09244000      0.073194    0.39854800    0.11699300
Se   12.56577000    7.52858000   17.85231000     -0.586650    0.07295000    0.99859300
Se    9.95313000    9.49845000   10.40390000      0.290633    1.44237100    0.16868300
Se   13.04096000   13.23548000    1.65193000     -0.323128    2.01361600    1.65913000
Se   12.65884000   10.81451000    7.88731000     -0.138933    0.14778700    0.18464200
Se   14.04158000   16.84498000    2.52921000      0.094530    0.03500900   -0.32099500
Se   12.61811000   17.43776000   10.26117000      0.570267    0.18868800   -0.06636000
Se   18.89149000    3.56888000    3.04073000     -0.238336    0.21559200    0.00500700
Se   16.37755000    1.51993000   13.22382000     -0.582487    0.45190400    0.04791100
Se   16.26303000    7.81981000   18.15148000     -0.945248    0.27444700   -0.28100300
Se   17.78161000    4.95848000   12.59536000     -0.371129    0.60029400   -0.44006900
Se   18.42181000    9.20687000    0.93354000      0.333441   -0.05062900   -0.58455800
Se   17.16948000   14.61166000    7.01281000     -0.268374    0.72449700   -0.55145800
Se   21.11639000   19.54145000    0.62887000     -1.573166    0.62775100   -0.68924400
Se   15.98977000   18.96277000    7.93808000      0.032835    0.52118200   -0.15116400
Se    1.40268000    1.92958000    1.64323000      1.169730   -0.31358000    0.11887100
Se    5.56578000    7.75620000    9.99979000     -0.262920   -0.04224700    0.61040900
Se    6.30420000   10.42502000    1.72651000      0.418525   -0.23026200    1.20489600
Se    4.77298000   11.95447000   10.01421000     -0.541262   -0.38052400   -0.51284100
Se    2.85142000   15.71115000    0.95928000     -0.102162   -0.83074000    0.96367200
Se    2.54624000   13.07121000   12.60514000     -0.127699    0.03336500   -0.63997600
Se    3.90959000   21.61535000   18.57159000     -0.766897    0.16800800   -0.72747700
Se    5.52808000   20.36822000   10.38575000      0.750854   -0.34808800   -0.14364900
Se   12.46625000    5.04525000    2.41012000     -0.738160   -0.24672400    0.13006100
Se    6.91627000    5.27682000    7.39351000     -0.033593   -0.35458500    0.10024500
Se   11.98374000   11.09759000    1.19562000     -0.841355   -1.69865600   -0.35106500
Se    6.80033000   10.60074000   10.17800000      0.233494   -0.11788300    0.43406100
Se   10.20031000   15.64014000    2.01583000     -0.221562   -0.35556000   -0.27145600
Se   12.63431000   12.72331000   13.12504000      0.594362    0.14512800   -1.05163800
Se   10.57272000   21.22553000   18.06728000     -0.847899    0.98967800   -0.07419800
Se    8.35608000   21.98933000   12.22221000      0.056255    0.16929400    0.24335000
Se   14.49132000    5.08042000    0.76762000      0.488880   -0.67920800   -1.00170700
Se   17.00609000    6.66394000    8.67312000     -0.193591   -0.09315100   -0.24536400
Se   15.55583000   10.57419000   18.40644000     -1.142171   -0.07776200    0.81928500
Se   15.32166000   11.75677000   12.84071000     -0.450412    0.18780900   -0.89561100
Se   18.03387000   15.35923000    2.98338000      0.455783   -0.53001400   -0.47155400
Se   16.30042000   11.12662000   10.06090000      0.472866    1.32170500    0.26323500
Se   18.21382000    0.12090000    0.63686000     -0.309525   -0.03094700   -0.26435100
Se   14.98105000   21.05658000    7.28922000      0.693329    0.59960900    0.07044600
Se   22.08393000    4.35162000    1.59791000      0.692595    0.70362800   -1.41551900
Se   20.78746000    3.96064000   11.03537000      0.304487    0.14714900   -0.00722200
Se   21.12757000    6.23412000    0.51906000     -0.728169   -0.09082200    0.28663600
Se   21.07614000   11.04366000   11.93388000     -0.782317   -0.70773700   -0.27306300
Se   18.97232000   14.76987000   18.25633000      0.185690   -0.19578400    0.28670100
Se   21.13662000   16.68583000   12.37125000      0.187075    0.46177000   -0.01318400
Se   21.57896000   22.52719000    4.14611000     -0.752390   -0.39595400   -0.26202200
Se   17.57174000   20.96969000   10.88104000     -0.944447   -1.46176000    0.32064900
Se    3.35129000    5.24763000    8.91120000     -1.222255    0.01000500   -0.48556000
Se   21.60179000    3.30929000   17.40861000      0.553389    0.13431200   -0.92953700
Se    2.66181000    9.25517000    8.27267000      0.571503   -0.25874200   -0.52356200
Se    1.81447000   10.22812000   16.89549000     -0.299001   -0.27516900    0.33369100
Se    4.65134000   17.81824000    8.29852000      0.561946   -1.04475100   -2.11811500
Se    0.38959000   17.90983000   15.26872000     -0.089339    0.28116000    0.55807700
Se    0.97206000   18.86416000   12.84929000      0.172474    0.46749200   -0.50110400
Se    1.20960000   20.62013000   17.19122000      0.458518   -0.21187800    0.44605000
Se    5.14660000    3.60316000    4.96961000     -1.305662    0.79237400   -0.06563100
Se    4.88080000    5.81025000   17.83205000      0.862491    0.55891500    0.29034100
Se    4.97455000    9.35168000    5.49486000      0.326307    0.85874900   -0.07034000
Se    3.65313000    6.83942000   15.94639000     -0.141753    0.32588300    0.53527500
Se    6.80183000   14.50075000   11.45572000      0.438368    0.10784500    0.58765200
Se    6.73539000   17.11853000   17.82821000     -0.412038   -0.66080700    0.55316100
Se    9.67424000   18.21119000    6.17058000      0.348498    0.17686000    0.30295600
Se    5.74367000   20.21730000   18.02164000      0.455805   -0.55549700   -0.18450200
Se    9.92976000    2.75635000   10.33238000      0.391187   -0.70134200   -0.55597700
Se   12.60242000    4.03499000   16.99098000     -0.086885   -0.48181600   -0.62262600
Se   13.56256000    6.93205000    6.51408000     -0.414728   -0.58075500    0.86777600
Se   13.64779000   11.17952000   16.44323000      0.020117   -1.01477800   -0.22709100
Se   11.08487000   14.63994000    7.90596000      0.515301   -0.55055300   -0.35746500
Se   14.22962000   15.67994000   16.99497000      0.115531    0.21439100    0.67505100
Se   12.20078000    0.91718000    7.75520000     -0.071850    0.68817000    0.05541100
Se   14.51698000   21.00929000   17.86639000     -0.554100    0.14648200   -0.42139500
Se   13.99003000    4.18097000   10.39236000     -1.708652    1.43282500    0.21467900
Se   20.39818000    1.76204000   15.72344000      0.947580    0.47066300    0.37235400
Se   19.06377000   10.25251000   10.72461000      0.183847    0.55679700    0.46489800
Se   17.37810000   10.84132000   15.82425000      0.372860   -0.15655800   -0.55518800
Se   14.40690000   16.35247000    6.60688000     -0.066900    0.58173600   -0.81654600
Se   20.20171000   13.65018000   14.54975000      0.338772   -0.22409200    0.05839100
Se   19.15060000   21.47012000    7.74744000      0.044991   -0.28150700    0.36258100
Se   18.83853000   19.01012000    3.02560000     -0.535283    0.04323700   -0.45497000
Se    5.32599000    1.01564000    8.20981000     -0.116688    0.44704400   -0.51627100
Se    3.50746000    2.80644000   18.19388000      0.685386    0.78267200   -0.53566500
Se    8.57795000   10.16938000    7.14543000      0.228439   -0.82451800    0.57485000
Se    3.93669000    9.85209000   18.44704000      0.009935   -0.58257500    0.84124400
Se    6.74283000   17.30657000    5.96218000      0.058713   -0.49394800   -0.18030600
Se    4.68903000   12.23634000   18.37074000     -0.155192    0.32084600    0.57390300
Se    1.49227000   19.65977000   10.54832000      0.821668    0.22074800    0.00466400
Se    2.88185000   18.64385000    1.58332000     -0.649619    0.38401000    0.17428800
Se    8.27585000   22.14127000    8.46468000      0.490192    0.12255900   -0.31994800
Se    8.50575000    3.43638000    0.97451000      0.312032    0.05799600   -0.71000900
Se    9.86288000    5.62396000    8.59272000     -0.204827    0.38338500    0.92197000
Se    8.53609000    6.79695000    0.13277000      0.619719    0.11612800   -0.26143900
Se    8.21050000   12.05886000    5.69860000      0.027923    0.07201300   -0.91840100
Se    7.60482000   14.63317000   17.76403000     -0.049969    0.70791200   -0.18085000
Se   11.46980000   21.30267000   10.76214000      0.226565    0.38305000    0.22882400
Se   10.78812000   13.58246000   17.31542000      0.271639    1.09166600    0.41862500
Se   16.29837000    0.81617000    7.43227000     -0.930351   -1.04236300    0.55931800
Se   16.22577000    3.38093000    0.79669000     -0.262499    0.17954300   -0.33075400
Se   16.01385000    4.59767000    7.55848000      0.002008    0.21352700   -0.15730400
Se   14.85307000    7.21914000   16.06484000      0.562348   -0.90579200    0.97986900
Se   15.78509000    9.12048000    9.32711000      0.020607   -0.71411300   -0.96054400
Se   14.27831000   12.97002000   18.75654000      1.390592    0.27065100   -1.10900700
Se   13.23540000   18.76895000    5.65226000      0.017053    0.06071100   -0.14865000
Se   17.09661000   17.88744000   18.91393000      0.177826   -0.21314200    0.43953400
Se   20.34027000    2.09620000    8.29826000      1.101162    0.18464900    0.08099300
Se    0.75259000    0.69610000   13.91940000     -0.290954   -0.68742900   -0.50183400
Se   20.17829000    7.81200000    9.35357000      0.833689   -0.47942800    0.56456800
Se   22.09648000    7.93268000   16.84885000     -0.721891   -1.33072900   -0.66745800
Se   21.31554000   11.39029000    6.68593000     -0.312961   -0.09392700    0.70007700
Se   20.29210000   11.31273000   17.01727000      0.312276   -0.16142100    0.24488400
Se   19.01595000   17.24873000    7.98007000      0.037449    0.15450500    0.52587900
Se   20.02102000   16.92649000   15.98476000     -0.471026    1.24441800    0.24595100
Se    3.82591000   22.23067000   12.57083000     -0.310908    0.06962600   -0.52685200
Se    2.79618000    1.56145000   15.15033000     -0.639664    0.74133200   -0.43625900
Se   22.35812000    7.69158000    8.19196000     -0.501579   -0.13498200    0.34068800
Se    0.80750000   10.26581000   14.60085000     -0.090451   -0.22010300    0.03837000
Se    3.58182000   14.51598000    4.98537000      1.201747   -1.26100900    0.27952400
Se    1.89805000   13.98360000   16.69983000      0.519111   -0.00413900    0.20111700
Se    0.34546000   16.93562000    8.09081000      0.104591    0.05564500    0.12744900
Se    2.65799000   19.96489000   14.61744000     -0.560933    1.31797600   -1.10596300
Se    6.81402000    0.64851000    3.42418000      0.062849   -0.07119000   -1.19831600
Se    7.56260000   22.33846000    1.08890000     -0.797170    0.59350500    1.15570000
Se    9.09855000    7.87988000    6.51768000      0.239241    0.25941900   -0.00700500
Se    4.32805000    4.16875000   15.26177000      0.386229   -0.27169800   -0.98875300
Se    5.16839000   12.02796000    4.71231000      0.210254    0.69140100   -0.54608100
Se   10.13910000   13.52460000   13.99708000     -1.082297    0.52494200   -0.51620200
Se    8.32180000   17.85835000    3.82713000     -0.718907   -0.20374000    0.34895000
Se    7.27852000   16.77987000   13.98953000      0.988028    0.03986600    1.14968100
Se   14.11943000    0.40219000    3.88600000      0.095427   -0.30991800    0.70534400
Se   13.51649000    0.16036000   16.01883000      0.277027   -0.15961500    0.61122600
Se   12.30613000    9.96270000    4.87800000      0.492428    0.67017000    0.42342100
Se   11.57490000    6.62490000   14.60383000      0.190244   -0.79400400   -0.12598300
Se   13.91696000   12.97584000    5.83388000      0.843014   -1.22859300   -0.60904600
Se   13.38563000   14.30010000   14.89025000      0.187485   -0.26444100   -0.27911900
Se   11.81857000   18.80642000    7.51471000     -0.470264    0.03553500   -0.26500800
Se   12.17227000   18.27255000    1.52108000     -0.745894    0.75402500   -0.17482600
Se   19.55665000    2.10431000    4.98672000      0.026224   -0.51863100    0.46214000
Se   18.29726000    0.64420000   16.35945000      0.399700    0.58058300    0.07892600
Se   19.59807000    5.41254000    6.48657000      0.381900    0.62459600    0.30561600
Se   18.97515000    6.14149000   16.64874000     -0.059420   -0.73437900   -0.57332800
Se   19.34524000   12.02516000    4.13087000     -0.297414   -0.77284600   -0.45875000
Se   17.54342000   14.60715000   13.09260000     -1.133132   -0.33197300   -0.15676800
Se   17.16439000   18.75117000    5.01259000      0.883767   -0.17015500    0.18159200
Se   17.42464000   19.75675000   15.95142000     -0.678128   -0.70800500   -0.44940400
Se    2.12469000    6.92882000    5.58897000      0.232036    0.32756000    0.17685600
Se    2.09091000    6.54608000   13.65548000     -0.843180   -0.22940100   -0.09594600
Se    1.34780000   11.64422000    4.76199000      0.178080    0.33617400    0.57279600
Se    3.74979000   10.81323000   15.22590000      0.278129    0.18919300   -0.17201100
Se    5.69970000   13.93372000    7.75994000      0.405471    0.04811400   -0.18579300
Se    2.81942000   17.17081000   17.90654000      0.509531    0.36246700   -1.01960900
Se    1.90576000   19.90492000    7.24898000      0.909999   -0.44751700    1.82020200
Se    6.68002000   20.96445000   14.84307000     -0.152834    0.64397200    0.12833700
Se    9.55584000    0.59891000    5.22171000     -0.597357    0.18191600   -0.18540600
Se    7.11824000    2.15940000   17.64138000      0.489910   -0.01964000   -0.40852500
Se   13.32015000   11.96392000    9.85642000      0.025100    0.56659400    0.18219300
Se   10.23616000   10.27072000   16.85852000      0.464882    0.10646600    2.34080300
Se    8.37392000   13.28482000    8.70779000     -0.290738    0.42816200   -0.21788800
Se   11.84030000   16.90770000   14.16142000     -0.973666    0.08674200   -0.23480400
Se   11.97335000   20.84344000    4.64744000      0.763044   -0.16924800   -0.34156900
Se   10.13710000   17.67429000   17.73558000      0.286743   -0.25024300   -0.51744700
Se   10.64894000    4.50879000    6.80451000      0.747954   -0.08610500   -0.69714900
Se   18.06200000    3.87689000   17.07620000     -0.023728    0.77225100   -0.44293100
Se   16.84737000    8.35767000    4.98518000      0.045170   -0.15762800    0.16513500
Se   16.49915000    8.08494000   13.05407000     -0.582278   -0.18567900   -0.16588900
Se   17.67402000   10.84313000    5.46581000      0.205540    0.57092800    0.48037000
Se   15.02088000   17.45245000   15.63960000     -0.207206   -0.13861100    0.97697500
Se   15.75204000    2.17173000    4.84382000      0.082322    0.20846200    0.10039500
Se   18.47669000    2.65293000   13.19863000      0.102109    0.19882900   -0.22038900
Se    1.15057000    3.37254000    5.16569000      0.133532   -0.60187400    0.38149300
Se    0.29654000    4.84702000   15.64594000     -0.682702   -0.55227800    0.46802900
Se   18.68270000   13.64292000    8.42465000      0.273157   -1.62997300    0.12387300
Se    0.10402000   13.38829000   13.49199000     -0.871521   -1.16350500    0.23671800
Se   21.03985000   14.76295000    5.68468000     -0.060728    0.21268400    0.04575700
Se   20.15770000   19.25322000   13.30830000     -0.465992   -0.25897100   -0.39843100
Se   20.41498000   19.34382000    7.75359000      0.646496    0.45021000    0.33952600
Se   21.34888000   20.91312000   16.10246000     -0.671407   -1.79680600    0.37496200
Se    4.08647000    0.53251000    4.21145000      0.032153   -0.32272400    0.22482800
Se    7.13547000    1.87386000   15.02754000      0.017816    0.85354600    0.18354300
Se    2.41371000    6.12013000    1.16373000     -1.167129    0.59426200   -1.74665800
Se    4.55003000    7.78900000   12.29364000      0.396171    0.19503500   -0.78326500
Se    1.93745000   13.60987000    1.56720000     -0.075416    0.05770600    0.32490500
Se    5.16877000   14.76337000   15.25470000     -0.768782   -0.23073000    0.09667000
Se    5.45511000   17.70963000    2.43735000     -0.066327    0.66715700   -0.18145600
Se    5.46478000   17.27612000   12.10186000     -1.287173    0.66381800   -0.66928200
Se   10.42737000    0.78174000    2.85659000      0.302395   -0.23746200    0.31856300
Se   10.87233000    1.03458000   16.85615000     -0.219893    0.18059700    0.15752300
Se   10.36732000    7.17395000    2.72643000      0.115273    0.22436300   -0.71863500
Se    7.22963000    8.21225000   15.98263000      0.042821   -0.13420000   -0.19907100
Se   10.58577000   11.18995000    3.82775000     -0.566176    0.23110200   -0.17325600
Se    9.71493000   11.46740000   12.44350000      0.352770   -0.54078500    0.17631300
Se    9.59016000   20.21699000    2.04067000     -0.212595    0.29973800   -0.54951200
Se   14.86184000   18.01683000   13.08492000      0.603902    0.34172100   -1.51743400
Se   14.00616000    3.52372000    5.96832000      0.333408   -0.25674600   -0.34316800
Se   15.83215000    1.15853000   15.88071000     -0.734409    0.07274900    0.12682500
Se   15.72374000    5.83588000    4.50685000      0.714892    0.62173700   -0.56387300
Se   13.68623000    8.61537000   10.99435000     -1.661930    0.77517700    0.68927600
Se   15.88289000   11.40196000    2.67278000      0.789589   -1.70157500   -0.63758700
Se   16.53566000   14.28860000   16.38416000      0.115516   -1.12927200    0.05660700
Se   15.70435000   15.47625000    3.86690000      0.357169    0.28249900    0.13865600
Se   14.36044000   21.69352000   12.98508000      0.193052   -0.06031300   -0.73295700
Se    0.26369000   21.27079000    6.39822000     -0.974837    0.44926400   -0.31469000
Se   19.54433000    0.12251000   13.12453000      0.118116    0.04757600    0.66927200
Se   22.06996000    7.07816000    3.75691000     -0.273154    0.38569400   -0.31592400
Se   19.49819000    7.97149000   13.81581000     -0.366902    0.65179300    0.32908900
Se    0.96577000   13.74440000    6.18284000     -0.604386    0.57009300   -0.35724600
Se    0.57637000   15.49670000   14.61438000      0.038402    0.32910000   -0.18002800
Se   21.86210000   18.08341000    3.91822000      0.197271   -1.09446600    1.22984500
Se   21.79184000   21.36960000   10.96723000     -0.045260    0.30375500   -1.48523000
Se    3.01167000    5.19809000    3.07188000      0.593894   -1.38358400    2.19436500
Se    1.78331000    3.25042000   12.01261000      0.842094    0.06374200   -0.95489400
Se   22.09024000   11.08804000    1.97388000     -0.772743   -0.16279400    0.06541500
Se    1.42297000    9.68813000   11.78074000      0.469373    0.52006000   -0.65025800
Se   22.19552000   16.62739000   18.65799000     -0.521361   -0.39267200   -0.31046100
Se    3.35591000   15.89518000   12.89403000      0.664567    0.76490600    0.52494400
Se    1.60544000   20.55158000    2.32110000      0.210690    0.79696300    0.56629700
Se    4.76620000   19.32328000   15.35446000      1.522019    0.37703500    0.57093600
Se    8.90192000    4.48477000    4.12323000     -0.666978   -0.11949300    0.86674700
Se    9.92693000    3.04672000   14.07741000     -0.027782   -0.19659100    0.65675000
Se    5.91234000    6.65871000    4.46844000     -0.138735   -0.35917500    0.33453100
Se    8.40842000   11.39178000   16.00437000     -0.714107    0.79163200   -1.33577600
Se    6.01739000   14.97464000    2.03515000     -0.003573   -0.58064900    0.01243700
Se   10.23119000   15.17956000   11.14092000      0.761920   -3.49749000    0.11722800
Se    5.58625000   20.78177000    6.03798000      0.235920    0.30474200   -0.32177400
Se   10.01594000   20.29804000   15.07748000      0.297823   -0.65340200   -0.92960500
Se   13.61971000    2.62618000    2.57397000     -0.903725    0.03961400   -0.34068500
Se   11.30424000    5.19097000   11.60514000      0.046060    0.07737800   -0.61696200
Se   13.93302000    7.94854000    2.84523000      0.170019    0.40234700   -0.01893500
Se   10.90661000    9.34156000   14.24925000      0.485536    0.45881500   -0.52597400
Se    9.30975000   13.99769000    4.37321000     -0.663254    0.05877700   -0.18520500
Se   14.55713000   14.28211000    9.64251000      0.403934   -0.95499000    0.37570700
Se   15.49753000   20.24442000    2.18776000     -1.280087   -0.23471400   -0.49324100
Se   13.42048000   19.75678000   14.07425000      0.285242   -0.10954900    0.43629400
Se   18.71187000    5.52103000    1.29251000      0.453302   -0.18969900   -1.01008400
Se   14.94880000    4.86564000   13.94571000      0.212356   -0.11087800    0.29375200
Se   18.58643000    8.19729000    3.12683000      0.108124   -0.32017400    0.77104100
Se   20.86140000   14.48008000   11.59528000     -0.087961   -0.57649900   -1.50124100
Se   20.72619000   14.65099000    2.40582000     -0.018494    0.04696500   -0.11129700
Se   18.04097000   17.71297000   11.77036000     -0.976115   -0.53173100   -0.27877500
Se   17.56723000   22.04917000    4.59531000     -0.090391    0.43069600   -0.58540000
Se   16.49756000    1.49857000   10.60606000      1.458946   -0.08549300    0.13509400
