384
22.54784000 22.54784000 18.93360000
Ge    5.73083000    5.21968000    9.36066000      0.822225    0.00547300    1.25609800
Ge    4.35951000    7.74099000    1.16375000      0.104515    0.07415700   -0.23906300
Ge    3.52254000   11.41775000    7.11774000      0.001110    0.17892600   -0.03238900
Ge    6.03195000   10.83057000   16.92632000      0.341889   -0.95428400   -0.21857300
Ge    4.38434000   14.56723000   10.77031000     -0.936872   -0.70617100   -0.55443300
Ge    8.76814000   17.52127000    0.97479000     -0.276659    0.46226700   -0.52990600
Ge    6.57542000   19.49337000    7.67710000      1.166794   -1.49830700    2.28288600
Ge    4.77674000    1.12899000   16.36801000      0.189357   -0.03493400    0.82795600
Ge    8.34522000    7.81802000   10.13177000     -0.944269   -1.28049100   -0.54047400
Ge   10.77390000    5.37300000    0.05513000      0.203581    0.18975300   -0.10883000
Ge   12.00273000    8.68886000    9.14170000      0.535757   -0.53243400   -0.77492300
Ge    9.69561000   11.87790000   18.91094000      0.383568    0.04257500    0.27783500
Ge   10.25434000   16.65178000    9.33178000     -0.402785    1.32447100   -0.84712200
Ge   11.72947000   15.67264000   18.81580000     -0.578117   -0.02316700   -0.40635800
Ge    9.54818000    0.18467000   10.22729000      0.502874    0.22239300   -0.44913700
Ge   14.42019000   22.47599000    1.12791000      0.188383   -0.05873400   -0.20321800
Ge   18.41939000    5.01860000    9.85342000      1.385829   -0.28294600    0.75003700
Ge   18.25781000    8.67380000   17.09668000      0.240150   -0.12991200   -0.35190900
Ge   18.31594000   15.05396000   10.81174000     -0.023867    0.51644500   -0.00139400
Ge   17.56612000   12.18774000   18.08554000     -0.293240    0.15853700   -1.00732900
Ge   13.13012000   15.70863000    8.51478000      0.752391    0.26911100   -0.31872800
Ge   16.82822000   15.39242000    0.80076000     -0.560402   -0.36145700   -0.85536000
Ge   16.27740000    3.81578000    9.96524000     -0.720565   -1.04754700    0.18255300
Ge   19.27738000    2.91842000    0.19853000     -0.088046    0.86766500    0.16870500
Ge    1.49988000    3.65998000    9.47915000     -0.069595    3.08830600    1.29905600
Ge   21.35860000    3.61048000    3.96513000     -0.082656    0.96085800    0.37323200
Ge    0.74956000   10.40657000    9.34825000     -0.466356    0.33174400    0.36288500
Ge   21.82620000    9.79222000   18.42809000      0.046633   -0.04535400    0.14646200
Ge   20.67800000   15.34881000    8.00564000      0.867102   -0.50393300    0.37672600
Ge    4.44066000   14.67068000   18.07382000     -0.097392    0.95364800   -0.74329300
Ge   19.24670000    0.15974000   10.54225000      0.785467    0.59034700   -0.07311600
Ge   21.71882000   19.96356000    2.84152000      0.551773    2.08427700    0.42679300
Ge    4.20303000    7.35246000    6.84178000     -0.089574   -0.09658700    0.57974200
Ge    1.89257000    7.77164000   17.77993000     -0.216057   -0.15110800   -0.43792400
Ge   20.81542000    9.74340000    3.81907000      0.027181    0.16129800    0.39403200
Ge    3.44497000   13.29483000   14.93190000     -1.262659   -1.02191600   -0.31381000
Ge    5.06433000   18.63896000    4.82136000     -1.756752   -0.71631200   -0.73283400
Ge    0.76230000   18.74190000    0.03561000      0.293561   -0.03657200   -0.23699100
Ge    3.76178000   18.39773000   10.29811000     -0.347761    0.94285800    2.29297000
Ge    1.85151000    0.84756000   17.98902000      0.894263    0.14516700    1.14401500
Ge    9.77105000    2.21752000    7.31852000     -0.245811   -0.43037200    0.83262200
Ge    7.55485000    5.68691000   17.06701000     -0.897519    0.34891200   -0.10661400
Ge    8.18888000   10.40328000    3.77381000     -0.679887   -0.82969600    0.12161200
Ge    9.76458000    7.74861000   16.37355000      0.220551    0.04909500   -0.02863800
Ge    7.10202000   15.58502000    9.17846000      0.157462   -0.42978700   -0.46844200
Ge    9.07504000   15.27686000   15.73251000      0.240839    0.03416400    0.98001100
Ge   10.93616000   21.69917000    6.92168000     -1.133292   -1.39163600   -0.14609900
Ge   10.52155000    0.16185000   13.87228000      0.159567    0.75134900   -0.20548400
Ge   11.87517000    7.67298000    4.89529000     -0.374634   -1.01382700    0.03360800
Ge   15.12609000    3.92927000   16.45426000      0.509408   -0.04027700   -0.00122800
Ge   14.37909000    9.13204000    6.52170000      0.908660    0.17700500    0.29460900
Ge   15.09853000   12.46609000   15.03655000      0.377662    1.19770200    1.99290400
Ge   12.12326000   14.53824000    5.38537000      0.368957    0.41202500    0.37495900
Ge   14.41042000   18.44994000    0.32062000      0.507441    0.11797700    0.19845900
Ge   14.59551000    0.24829000    9.54617000      0.517022   -0.97311900   -0.77797700
Ge   17.03565000   21.41654000   13.95370000      0.608398    0.26747500   -0.52348100
Ge   21.58196000    4.42413000    8.53105000      0.226716    0.36704500    0.44299400
Ge   19.85579000    5.45229000   13.95079000      0.308547    0.14369900    0.67994800
Ge   19.14712000   10.74068000    7.76888000     -0.171365    0.18259600   -0.53590500
Ge   21.41117000   14.92003000   16.44643000     -0.558325   -0.25110900    0.56083600
Ge   18.69599000   16.62517000    5.59873000     -0.209311   -0.92084900   -0.59589800
Ge   17.37395000   16.95940000   16.67275000     -0.220230    0.19186600   -0.94113900
Ge   22.31437000    1.45050000    6.77597000      0.115769    0.09244600   -0.48177000
Ge   18.86552000   20.88441000   17.43920000      0.615504    0.48278100    0.62205500
Ge    6.58835000    2.65216000    6.67625000      0.465413   -0.02065000   -0.02089300
Ge    4.68676000    2.90924000   12.95063000     -0.695290   -0.43814200    0.20771800
Ge    0.35334000    9.65477000    6.15412000      0.050586   -0.81391000   -0.20901400
Ge    2.11553000    7.27095000   11.14738000      0.332831   -0.28488300    0.68053500
Ge    0.56382000   15.69932000    4.21857000      0.020810   -0.30461500   -0.03897000
Ge    2.80873000   17.57552000   15.40610000      0.586533   -1.40543400    0.08840900
Ge    3.59784000   21.94960000    9.99013000      0.294765   -0.74697400    0.77454200
Ge    7.66494000   18.89337000   16.04288000      1.199218   -1.44349400    0.78379000
Ge    6.69889000    3.66606000    2.96898000      0.217936   -0.03177600   -0.13474700
Ge    9.23853000    3.33115000   17.10291000      0.698340   -0.11219200   -0.09300300
Ge    8.25364000    7.49112000    4.16179000      0.044756    0.80953600    0.27303500
Ge    7.09657000    9.57409000   13.68296000      0.175466    0.05308400    0.09799600
Ge    6.35779000   14.51815000    4.59383000     -0.546141    0.11602200    0.03680500
Ge   11.52034000   11.82207000   15.13770000      1.466875   -0.32358600    0.14676900
Ge    7.39869000   20.58545000    3.82515000      0.626383   -0.24702800    0.48967800
Ge    9.49106000   16.80235000   12.60638000      0.389198    0.30367500   -0.18686400
Ge   12.38406000    1.77100000    5.04181000     -0.591043    0.20660300    0.01789100
Ge   12.68667000    4.24068000   14.47144000     -1.124437   -0.30487700    0.23062300
Ge   17.76173000    4.41874000    5.43584000     -0.842754   -0.76283600   -0.70769700
Ge   14.17601000    9.10447000   14.60811000     -0.187571    0.12949100   -0.43053500
Ge   14.88846000   13.23412000    3.50851000     -0.898752    0.37267200    1.03494200
Ge   13.29351000   15.72184000   12.39791000      0.218628   -0.03001100   -0.69961300
Ge   10.82236000   18.79656000    3.75884000     -0.306204   -0.56769600    0.63767400
Ge   12.10567000   19.87956000   16.72690000     -0.070676   -0.64672200   -0.22948800
Ge   22.36513000    5.55787000    5.76278000      0.226647    0.44141900    0.61684400
Ge   22.23980000    3.57891000   13.11261000     -0.500817   -0.01891500    0.81486400
Ge   19.44000000    7.89918000    7.06221000     -0.054252    0.33761200   -0.35543900
Ge   17.25699000   10.36060000   12.67739000      1.215395   -0.85602300   -0.05363300
Ge   19.68922000   17.03793000    0.61737000      0.996081   -0.48391300    0.36161500
Ge   19.35783000   16.03579000   13.81463000      0.568564   -0.33458000    0.19327600
Ge   19.34710000   20.18894000    5.55738000      0.172879    1.19659500   -0.69593800
Ge   21.57302000   21.13310000   13.50143000      0.493741    0.42800600   -0.27704000
Ge    3.40675000    2.57981000    2.91072000     -0.471317   -0.33201400    0.26767100
Ge    6.18280000    0.40547000   13.13835000     -0.600582   -0.10561500   -0.45530700
Ge    3.43609000    8.22322000    3.72874000      1.285883   -0.60199900    0.68810600
Ge    6.66157000    4.52919000   14.59302000      0.290290   -0.27016900   -0.04686800
Ge    4.44231000   12.21188000    2.21135000     -0.239686    0.63889600    0.08326900
Ge    3.77003000   10.83698000   12.15957000      0.232263   -0.64511600    0.16512400
Ge    3.33684000    0.54999000    6.77669000      0.602491   -0.36924600   -0.35818900
Ge    7.39736000   19.47284000   12.81957000     -0.401106   -0.18014800   -1.25107300
Ge   10.30326000    3.15347000    2.55684000     -0.018628    1.25002800   -0.59014300
Ge    8.98716000    4.56585000   12.29096000      0.456058   -0.20328600   -0.15885700
Ge   12.37466000    8.58542000    1.18732000     -1.191272   -0.00871900   -0.34852100
Ge   11.01736000    7.73361000   12.16765000      0.357857    0.35590000    0.28674100
Ge    8.32611000   13.87099000    1.71710000      0.298075   -0.11926700    0.14317200
Ge    7.98952000   12.53825000   11.02456000      0.319389   -0.46784200   -0.60738300
Ge   11.83572000   21.11581000    1.19876000      0.543165    0.08567900    0.96837600
Ge   11.25858000   19.32994000   12.93409000     -0.635095   -0.16142800   -0.85775900
Ge    0.18311000    0.30241000   16.31305000     -1.169470    1.82809500   -1.19687600
Ge   12.93557000    1.98182000   10.45680000     -1.272890   -0.28533500    0.88793900
Ge   15.99153000    6.64523000    1.96165000      0.107669    0.19165400    0.19688700
Ge   15.12752000    6.60505000   11.00265000      0.641996   -0.03574500    0.67367700
Ge   18.39937000   11.49322000    1.82889000     -1.001974    0.78456500    0.15154200
Ge   16.81851000   17.06772000    9.55101000      0.159314   -0.25044100    0.24095300
Ge   17.82917000   21.11891000    2.17696000     -1.471675   -0.52068400    2.56453100
Ge   15.26968000   19.87033000   11.09567000     -0.323901    0.41395400   -0.28874200
Ge   21.66977000    1.72381000    2.39447000     -0.407717   -1.14910900   -0.28824200
Ge   22.18580000    1.54854000   10.38383000     -0.573875   -0.06381000    0.20847300
Ge    0.82378000    8.28424000    2.05496000     -0.877697   -0.38833700   -0.68527600
Ge   21.71284000    8.94455000   13.37853000     -0.282330    0.68187900    0.29712100
Ge   20.29144000   12.81549000    0.68812000     -0.034309    0.89788800    1.10191900
Ge    0.42651000   14.80034000    9.14806000      0.033427   -0.74946800    0.57182200
Ge    2.26282000   19.74003000    4.91611000      0.712336   -0.73555400   -1.85221000
Ge   19.61389000   19.28162000   10.58564000      0.212841    0.48654100    1.03700100
Se   21.63198000    0.32687000    0.44583000     -0.448033    0.02608500   -0.42223000
Se    1.74790000    1.63515000    8.58302000     -0.000715   -2.64735600   -0.87500900
Se    2.36641000   10.14569000    2.92715000     -0.264940    0.65813700   -0.38705500
Se   22.26889000    6.71182000   12.63856000      1.301549   -0.56771300   -0.02441200
Se   22.13496000   12.77152000   18.14869000      0.657613    0.03858700   -0.83471500
Se    2.15322000   12.61018000    9.13160000     -0.210033    0.38284300    0.18062400
Se    2.80463000   16.81638000    5.14984000     -0.005829   -0.13721100   -0.11792700
Se    2.16505000   16.16580000   10.76184000     -0.488178    0.40285700    0.16467900
Se    4.96909000    2.16033000    0.98616000     -0.036980   -0.14255500    0.67087700
Se    6.19101000    4.46597000   11.79701000      0.265257    0.24299800   -0.23654100
Se    6.21372000    6.36856000    2.09116000      0.696122   -0.86998000   -0.09459200
Se    8.47200000    7.38602000   12.54521000     -0.183996   -0.43463400    0.27221400
Se    7.90109000    9.96007000    0.02711000      0.025919   -0.20681800   -0.26511100
Se    5.86869000   11.85198000   14.13980000      0.546649   -0.44360400   -0.43688800
Se    5.67269000   20.41138000    2.07767000      0.225501   -0.61788100   -0.43377900
Se    8.75496000   18.35103000   10.81415000      0.217723   -0.00036500    0.31843800
Se   12.10824000    2.12924000    0.59593000      0.306833   -0.54703300    0.77932700
Se   12.79763000    1.76154000   13.07585000      0.130524    0.32748300    0.17319000
Se   12.55833000    7.52870000   17.94356000     -0.495964   -0.12432400    0.71092600
Se   10.03568000    9.47233000   10.42270000      0.380405    1.78099100    0.14655600
Se   13.03084000   13.38754000    1.72160000      0.460987    1.17299200    0.14286200
Se   12.66839000   10.86455000    7.84813000     -0.113161   -0.05424100    0.40109200
Se   14.12280000   16.97304000    2.49759000     -0.101133   -0.11606100   -0.16307100
Se   12.69548000   17.43217000   10.19426000      0.259088    0.05749000    0.16202500
Se   18.91603000    3.58896000    3.13762000     -0.896301    0.91772100   -1.48661900
Se   16.42711000    1.50855000   13.27971000     -1.622227    0.24715800   -0.05481200
Se   16.10102000    7.88060000   18.12009000     -0.334666    0.39557900   -0.25460700
Se   17.81487000    4.98285000   12.49948000     -0.477564    0.62146700   -0.01836700
Se   18.49458000    9.26585000    0.89488000      0.359465   -0.29862500   -0.31976200
Se   17.14825000   14.71255000    6.97322000     -0.791902    0.86374600   -0.78001800
Se   21.03118000   19.67003000    0.63699000     -0.805542    0.29863800   -0.73047900
Se   16.04533000   19.01939000    7.81617000      0.126750    0.32020000   -0.09469300
Se    1.32843000    1.81244000    1.54388000      1.557163   -0.21010000    0.35799300
Se    5.55177000    7.72485000   10.04252000      0.591728   -0.06622900    0.01994500
Se    6.31259000   10.42895000    1.62826000      0.206080   -0.24853400    1.67599400
Se    4.75283000   11.86560000    9.96865000     -0.726769   -0.30724000   -0.24485600
Se    2.80798000   15.66480000    0.97462000      0.281723   -0.21611000    0.58600200
Se    2.63390000   13.06418000   12.53435000      0.059358    0.40636400    0.23901600
Se    3.85433000   21.58619000   18.48822000     -0.632755    0.15496700   -0.69104100
Se    5.58873000   20.26850000   10.41199000      0.042308    0.42229200   -0.33861700
Se   12.29827000    4.99195000    2.49999000     -0.350737   -0.42419500    0.05019600
Se    7.02815000    5.18898000    7.41929000      0.025338   -0.20003700   -0.30762000
Se   12.00295000   11.09378000    1.26021000     -0.550289   -1.14483800   -0.40814400
Se    6.77783000   10.56068000   10.17825000      0.581783    0.11550300    0.73399500
Se   10.12604000   15.63818000    2.05274000      0.197939   -0.41342000   -0.56137900
Se   12.55685000   12.61733000   12.96886000      1.000025    0.58566500   -0.49387600
Se   10.60985000   21.30518000   18.05957000     -1.154776    0.55904400   -0.43980200
Se    8.43688000   21.94529000   12.18113000     -0.585593    0.09885500    0.73946600
Se   14.47210000    5.08369000    0.71443000      0.655825   -0.16437500   -0.27711100
Se   16.90293000    6.55571000    8.70364000     -0.347332    1.30208700   -0.24795800
Se   15.60303000   10.55480000   18.39947000     -1.055037   -0.17859100    0.97469900
Se   15.36147000   11.75118000   12.88125000     -1.349166    0.80699000   -1.25799000
Se   18.04752000   15.28781000    2.88966000      1.112086   -0.30271000    0.46522300
Se   16.34479000   11.13754000   10.08803000      0.174755   -0.10782700   -0.13435900
Se   18.15619000    0.08852000    0.66604000      0.216423    1.32400800   -1.85270100
Se   14.99333000   21.05806000    7.18681000      0.630013    0.59547000   -0.00033200
Se   22.17978000    4.35141000    1.62975000      0.162633    0.51710600   -0.93066000
Se   20.75217000    3.97512000   10.93397000      0.687276    0.07156700    0.28730800
Se   21.19598000    6.13310000    0.45189000     -0.664922    0.00618600    0.43468100
Se   20.90823000   11.05145000   11.96850000      1.049655   -0.10527900    0.72663200
Se   18.95937000   14.74692000   18.27162000     -0.019465   -0.10280100    0.21325800
Se   21.24502000   16.62464000   12.34139000     -0.020541    0.86109100    0.08978100
Se   21.56504000   22.52843000    4.13988000     -0.468908   -0.91006400   -0.19303900
Se   17.59589000   20.98974000   10.89457000     -0.481115   -1.41681100    0.25332200
Se    3.48789000    5.34624000    8.97185000     -2.192249   -0.27565500   -0.56177500
Se   21.67521000    3.31358000   17.44796000      0.409803    0.06975500   -0.84304200
Se    2.65635000    9.33857000    8.22152000      0.157713   -0.56844700   -0.22331600
Se    1.85493000   10.15893000   16.97269000     -0.933841    0.58983400    0.07078900
Se    4.52640000   17.80772000    8.30061000      0.570232   -0.93062500   -2.39877700
Se    0.43670000   17.87410000   15.19440000     -1.027451    0.70177400    0.60408300
Se    0.96752000   18.84956000   12.87851000      0.111355    0.51403000   -0.57081000
Se    1.21052000   20.61500000   17.27655000      0.723557   -0.41318200    0.43715600
Se    4.98889000    3.67892000    5.01912000     -0.282913    0.14263700    0.02422800
Se    4.86056000    5.87927000   17.84823000      0.979539    0.01002500    0.67920300
Se    4.81938000    9.43881000    5.50970000      0.268560   -0.03352200   -0.08375200
Se    3.55327000    6.79763000   16.07585000     -0.496479    0.75660900    0.07396400
Se    6.74460000   14.52499000   11.55211000      0.651582    0.09395200    0.79838800
Se    6.83707000   17.08578000   17.70746000     -0.568774   -0.53888800    0.76217000
Se    9.75755000   18.25862000    6.16642000     -0.317094   -0.08727400    0.09711500
Se    5.74026000   20.18413000   17.89539000      0.237025   -0.42253500    0.16644000
Se    9.95618000    2.69698000   10.34418000      0.357689   -0.69497100   -0.40724200
Se   12.67592000    4.06363000   17.03605000     -0.472264   -0.49654300   -0.91992800
Se   13.62519000    6.84567000    6.62666000     -0.658311    0.41033800    0.42010300
Se   13.70851000   11.11625000   16.55079000     -0.273961   -0.71985100   -0.56360600
Se   11.18343000   14.53684000    7.91271000     -0.107436   -0.49542700   -0.65604900
Se   14.15407000   15.61574000   16.99964000      0.267775    0.49758100    0.50304100
Se   12.18209000    0.98140000    7.81547000      0.298830    0.94435100   -0.00482000
Se   14.44131000   21.22773000   17.88625000     -0.495045   -0.10247900   -0.46710200
Se   13.90619000    4.18309000   10.39482000      0.036532    0.87065600   -0.19064900
Se   20.45313000    1.73356000   15.76372000      1.011953    0.51118800    0.17732600
Se   19.13859000   10.39901000   10.75768000     -1.196916   -0.22763800   -0.44883500
Se   17.31093000   10.73366000   15.82109000      0.396352    0.21188300   -0.55011000
Se   14.42916000   16.34872000    6.52955000     -0.847405    0.14479500    0.27182500
Se   20.31327000   13.62323000   14.52726000     -0.131936   -0.08314400   -0.00606300
Se   19.14404000   21.54414000    7.88083000     -0.002303   -0.66467700   -0.38883000
Se   18.71586000   19.11013000    2.95140000      0.709575   -1.45148200   -0.38966700
Se    5.31449000    1.02522000    8.24648000     -0.288189    0.30570800   -0.31901700
Se    3.44427000    2.88404000   18.35388000      0.125383    0.57195100   -1.08519100
Se    8.75182000   10.12442000    7.05837000      0.001793    0.10519000    0.97355300
Se    3.83532000    9.76752000   18.46177000      0.701462   -0.15839200    1.27597500
Se    6.65430000   17.18950000    5.85363000      0.508794   -0.39607800    0.25944900
Se    4.68672000   12.25604000   18.42060000     -0.232187    0.49920800    0.22637800
Se    1.54372000   19.73879000   10.48449000      0.860543    0.18745200    0.14176500
Se    2.86761000   18.65333000    1.57585000      0.445148   -0.98548200   -0.32903600
Se    8.17241000   22.22452000    8.37164000      0.603740   -0.00663400   -0.16602400
Se    8.45639000    3.46958000    0.90268000      0.655617    0.00374100   -0.10434000
Se    9.87849000    5.62518000    8.63469000     -0.155545    0.48067600    1.43445300
Se    8.53555000    6.75064000    0.15791000      0.473337    0.24195800   -0.56264200
Se    8.14257000   12.07964000    5.76211000      0.086012   -0.02192500   -1.38143100
Se    7.55964000   14.63969000   17.71439000      0.021278    0.57561500   -0.26740200
Se   11.40095000   21.25548000   10.79582000      0.212136    0.42973000    0.07488300
Se   10.73666000   13.66926000   17.36346000      0.386559    0.85514900    0.46515200
Se   16.38536000    0.75709000    7.39761000     -0.896487   -0.96222400    0.68094000
Se   16.14694000    3.41735000    0.70270000     -0.100002    0.04091800   -0.24218700
Se   16.10790000    4.65230000    7.57703000     -0.425574   -0.64362500   -0.39436800
Se   14.86954000    7.18853000   16.07684000      0.325492   -0.70467700    0.46109800
Se   15.73795000    9.05227000    9.27240000      0.404831    0.52418100   -0.45052000
Se   14.32235000   13.01564000   18.66403000      0.306429    0.39516500    0.54900500
Se   13.15598000   18.73820000    5.68119000      0.718834    0.04729900   -0.58352100
Se   16.95727000   17.87216000   18.86416000      0.638055    0.03824500    0.80162400
Se   20.41949000    2.19734000    8.39299000      0.553477   -0.70100000   -0.31173200
Se    0.84780000    0.64173000   13.86869000     -0.914527   -0.89970000   -0.05511400
Se   20.18812000    7.89486000    9.39346000      0.273074   -0.43544000    0.66714700
Se   22.10801000    7.87619000   16.82616000     -0.197432   -1.10036900   -0.09149700
Se   21.29135000   11.41672000    6.65305000     -0.552093    0.10778100    0.80391900
Se   20.36977000   11.30879000   17.01880000      0.052013    0.03920400    0.04503900
Se   19.09963000   17.24952000    7.97057000     -0.544978    0.52021300    0.81698700
Se   20.00871000   16.97065000   15.95007000     -0.318876    0.90284100    0.17800100
Se    3.73342000   22.15791000   12.53654000      0.318394    0.19083600   -0.50214000
Se    2.69298000    1.52941000   15.08757000      0.430173    1.00408000    0.23135700
Se   22.27911000    7.72877000    8.24206000     -0.285873   -0.23918200    0.00960900
Se    0.83848000   10.31554000   14.67302000     -0.583194   -0.33272100   -0.28882100
Se    3.59629000   14.51904000    5.14725000      0.668860    0.12602300    0.25333400
Se    1.96596000   14.01618000   16.70340000      0.391510   -0.11921200    0.16504900
Se    0.28638000   16.90253000    8.04863000      0.123845    0.82661500   -0.25287500
Se    2.64656000   19.89063000   14.63613000     -0.913498    1.71439100   -1.49207200
Se    6.79313000    0.51825000    3.36335000      0.104394    0.76131300   -0.91442200
Se    7.52125000   22.30153000    1.11002000     -0.668217    0.39798900    0.83816200
Se    9.04953000    7.88143000    6.59621000      0.491956   -0.75394600   -0.40072800
Se    4.35716000    4.13517000   15.30642000     -0.019973   -0.62401600   -0.74288800
Se    5.19287000   12.01666000    4.68828000      0.135085    0.84880000   -0.45933900
Se   10.16082000   13.51652000   14.03984000     -1.128572    0.55758700   -0.52455600
Se    8.34164000   17.94128000    3.77747000     -0.659741   -0.34452100    0.50782400
Se    7.43078000   16.75022000   14.04888000      0.580066    0.30775200    0.84285000
Se   14.15418000    0.31664000    4.00455000      0.332952   -1.00053200    0.79820900
Se   13.48461000    0.24617000   16.14413000      0.510454   -0.26627000    0.34072900
Se   12.35389000   10.03387000    4.86629000      0.981191    0.27679800    0.76445400
Se   11.54489000    6.52684000   14.36107000      0.131713   -0.46450000    0.67348200
Se   13.95519000   12.89460000    5.87321000      0.040230   -0.12832200   -1.06642700
Se   13.34233000   14.39595000   14.95740000     -0.127965   -0.83254500   -0.68388600
Se   11.75475000   18.77906000    7.48880000     -0.420325    0.22439500    0.39981900
Se   12.13390000   18.30736000    1.58946000     -0.286084    0.39035600   -0.18681400
Se   19.51082000    2.17908000    4.90463000      0.185651   -1.70233000    2.13858200
Se   18.36478000    0.70134000   16.39409000      0.428300    0.13324600    0.38767700
Se   19.62552000    5.44778000    6.52712000      0.528870    0.21825200    0.43735400
Se   18.98071000    6.14553000   16.57310000     -0.081507   -0.79444800   -0.45591200
Se   19.33741000   11.99624000    4.08091000     -0.144904   -0.53075500    0.25922300
Se   17.52340000   14.67238000   13.14910000     -1.002446   -0.47530500   -0.00987600
Se   17.26781000   18.76773000    5.03683000     -0.199984   -0.09262800    0.30922100
Se   17.35509000   19.85264000   15.94167000     -0.551467   -0.88191200   -0.19284400
Se    2.12985000    7.02428000    5.56698000     -0.002909    0.17566900   -0.14906400
Se    2.13593000    6.56064000   13.69600000     -1.148927   -0.21296400   -0.49107400
Se    1.19819000   11.61951000    4.71745000      0.566840    0.79370300    0.26714900
Se    3.71315000   10.84985000   15.33292000      0.599631    0.11945400   -0.63141700
Se    5.70742000   13.91931000    7.76895000      0.524531    0.29924600    0.01317700
Se    2.87199000   17.15133000   17.78688000      0.299070    0.35119100   -0.20267100
Se    2.04186000   19.89717000    7.15284000     -0.466444    0.43680400    2.25567900
Se    6.76166000   20.88599000   14.90431000     -0.737134    1.84701000   -0.44146500
Se    9.53996000    0.61002000    5.21804000     -0.791155    0.01116800    0.26261300
Se    7.12305000    2.22789000   17.63978000     -0.008565   -0.41842300   -0.11307400
Se   13.44237000   11.99001000    9.87097000     -0.630952   -0.00978000    0.13633000
Se   10.36707000   10.34124000   16.83383000      0.209482   -1.15635300    2.39012100
Se    8.38001000   13.21646000    8.66968000     -0.530563    0.82260000    0.05543600
Se   11.83245000   16.74500000   14.09799000     -1.442665    0.64231200    0.23099400
Se   11.90754000   20.81002000    4.57088000      1.032794    0.51786200    0.00354200
Se   10.16693000   17.63567000   17.65052000      0.507129   -0.22915100   -0.29875000
Se   10.64178000    4.53305000    6.84795000      1.089822   -0.21591000   -1.16075900
Se   18.01949000    3.93953000   17.14286000      0.048733    0.53216100   -0.41300400
Se   16.81826000    8.24160000    4.93298000      0.022032   -0.08064400    0.19046000
Se   16.39872000    8.12407000   13.11192000     -0.290012   -0.19112500   -0.19919500
Se   17.70674000   10.78297000    5.51315000      0.361816    0.67009300    0.38087100
Se   14.99342000   17.51444000   15.61949000     -0.328882   -0.48823900    1.09128000
Se   15.61228000    2.12463000    4.74182000      0.223032    0.50112200    0.55804900
Se   18.42524000    2.59156000   13.17668000      1.228486    0.60185200   -0.15399900
Se    1.09559000    3.44721000    5.19581000      0.468538   -0.77683500    0.32177000
Se    0.35999000    4.71534000   15.74881000     -0.634149   -0.43038100    0.36196800
Se   18.61038000   13.71626000    8.36784000      0.608232   -1.79250400    0.66156800
Se    0.08742000   13.40461000   13.47532000     -0.582632   -1.35667700    0.09601300
Se   20.91461000   14.75242000    5.64202000      0.106458    0.25985700   -0.25630400
Se   20.11179000   19.30605000   13.35063000     -0.618052   -0.54203100   -0.50903400
Se   20.47374000   19.31425000    7.67812000      0.900275    0.53665800    0.76968900
Se   21.46991000   20.90681000   16.17241000     -1.023194   -1.72291100    0.39216800
Se    4.20761000    0.53418000    4.31303000     -0.317421   -0.02571800   -0.04932600
Se    7.12891000    1.91245000   15.07812000     -0.007478    0.24526900   -0.08448300
Se    2.40425000    6.15128000    1.15309000     -0.831161    0.40721200   -0.84989100
Se    4.64073000    7.74343000   12.25220000      0.179373    0.20443400   -0.39197100
Se    1.89228000   13.65598000    1.56233000     -0.323087   -0.50240300    0.42608900
Se    5.08227000   14.80633000   15.25284000      1.041558    1.05613700    0.29379900
Se    5.43680000   17.70171000    2.45405000     -0.034753    0.67528100   -0.19741600
Se    5.48777000   17.34674000   12.06442000     -1.357603    0.42890500   -0.31538400
Se   10.31756000    0.81788000    2.94230000      0.496114   -0.56222600   -0.03259500
Se   10.93821000    1.00051000   16.87548000     -0.350304    0.43046700    0.01381400
Se   10.36514000    7.15375000    2.66749000      0.412568    0.28220200   -0.65831400
Se    7.23336000    8.17763000   16.09405000      0.184835   -0.00461100   -0.61847800
Se   10.58055000   11.14798000    3.93156000     -0.505342    0.93687200   -0.60537300
Se    9.80080000   11.57588000   12.45874000     -0.885538   -0.36886000   -0.66912500
Se    9.54882000   20.28780000    2.07207000     -0.204028    0.07552500   -0.64808800
Se   14.92418000   17.95386000   13.06050000      0.844703    0.20010000   -1.27019400
Se   13.86371000    3.55578000    6.00808000      0.803135   -0.25623700   -0.36587500
Se   15.88918000    1.07768000   15.91308000     -0.679425    0.29636400    0.07313600
Se   15.74158000    5.99074000    4.47409000      0.728872   -0.19281600   -0.10203200
Se   13.68612000    8.64006000   11.12566000     -1.634436    0.21433800    0.12838200
Se   15.92706000   11.35099000    2.76005000      0.523203   -0.85023100   -0.56514300
Se   16.46464000   14.41351000   16.34472000      0.311247   -1.25984500    0.17339000
Se   15.80498000   15.45419000    3.91022000     -0.079759    0.30479500   -0.07775900
Se   14.40789000   21.62021000   13.02820000      0.009983   -0.07244500   -0.69458600
Se    0.08649000   21.28312000    6.38430000      0.316903   -0.53956400    0.24978100
Se   19.50965000    0.10192000   13.12692000      0.243940    0.14331600    0.58747100
Se   21.95325000    7.05311000    3.79722000     -0.044082    0.37257500   -0.39798100
Se   19.54821000    7.91521000   13.84029000     -0.449370    0.83170100    0.22979300
Se    0.82792000   13.74197000    6.14473000     -0.350077    0.54194700   -0.35546000
Se    0.55901000   15.42731000   14.64703000      0.735936    0.19264500   -0.64896800
Se   21.80665000   18.02094000    3.90961000     -0.179353   -1.67812300    1.48918600
Se   21.84726000   21.29481000   11.05458000     -0.190844    0.70868900   -1.42599900
Se    2.89173000    5.13020000    3.12321000      0.474933   -0.89631900    1.19264500
Se    1.79179000    3.20369000   12.03896000      1.088347    0.16287500   -1.08747900
Se   22.03789000   11.14803000    1.96536000     -0.631869   -0.43344900    0.04600300
Se    1.38909000    9.60498000   11.76622000      0.388095    0.70685200   -0.52970300
Se   22.18896000   16.67822000   18.62483000     -0.581674   -0.76920200   -0.22851100
Se    3.36560000   15.97569000   12.98616000      0.472496    0.69088700   -0.19734600
Se    1.62881000   20.38638000    2.35919000     -0.393385    2.38719200    0.66097200
Se    4.72474000   19.34543000   15.37444000      1.522105   -0.20676000    0.86912500
Se    8.79447000    4.49778000    4.16212000     -0.340076   -0.37275500    0.51472800
Se    9.97609000    3.07263000   14.09012000     -0.042900   -0.19535200    0.66535600
Se    5.92888000    6.53768000    4.45575000     -0.070966   -0.08581100    0.51263500
Se    8.46698000   11.33144000   16.08852000     -1.427784    0.91371800   -1.48946400
Se    6.08629000   15.00149000    1.88685000     -0.121552   -0.48301600    0.54655900
Se   10.28826000   15.09558000   11.08588000      0.001392   -1.42173100    1.18482000
Se    5.53725000   20.71279000    6.04811000     -0.455633    1.87489400   -1.02667000
Se   10.01140000   20.32388000   14.93943000      0.436660   -0.62389900   -0.11518700
Se   13.63074000    2.52350000    2.65523000     -1.198846    0.89285400   -0.86584700
Se   11.33460000    5.32493000   11.54367000     -0.356950   -0.14110400   -0.81230800
Se   13.93534000    8.06057000    2.88036000      0.542030   -0.03803900    0.09361000
Se   10.96955000    9.43699000   14.21625000      0.375134    0.02879900   -0.24926400
Se    9.28676000   14.01082000    4.37767000     -0.704997   -0.04204300   -0.02560400
Se   14.49336000   14.12449000    9.69200000      0.734629   -0.18274500   -0.04866400
Se   15.47994000   20.26930000    2.15094000     -0.847989    0.02203000   -0.59568000
Se   13.48031000   19.64829000   14.05199000      0.211034    0.22862100    0.71297800
Se   18.66585000    5.45213000    1.30939000      0.495080    0.11127200   -1.20932600
Se   14.89764000    4.93296000   14.02119000      0.504021    0.01740400   -0.11596300
Se   18.68349000    8.18835000    3.04314000      0.142991   -0.20507700    0.64321200
Se   20.82587000   14.50529000   11.53103000     -0.165241   -0.71257600   -1.53201100
Se   20.76314000   14.59313000    2.32259000      0.090378    0.34101700    0.11704400
Se   18.01035000   17.76331000   11.81104000     -0.834726   -0.68681900   -0.53699800
Se   17.68804000   22.01269000    4.48519000     -0.338396    0.69537200   -0.45374500
Se   16.52468000    1.40059000   10.68304000      0.470051    0.32126600   -0.56334900
