384
22.54784000 22.54784000 18.93360000
Ge    5.79038000    5.18649000    9.34536000      0.345385    0.14099300    1.26632900
Ge    4.36716000    7.76130000    1.14175000      0.022974   -0.11847800    0.05915900
Ge    3.56893000   11.39856000    7.08419000     -0.022607    0.31892500   -0.04553300
Ge    5.95849000   10.81929000   16.88145000      0.351784   -0.68883200   -0.05259200
Ge    4.38278000   14.53814000   10.70394000     -0.893413   -0.77988200   -0.58846700
Ge    8.79530000   17.51219000    0.94530000     -0.340053    0.52290700   -0.40787700
Ge    6.50072000   19.53199000    7.70770000      1.236117   -1.82437200    2.49133300
Ge    4.80255000    1.15159000   16.36255000     -0.062167    0.10139200    0.65792400
Ge    8.41571000    7.77257000   10.10174000     -0.847785   -0.87153600   -0.36616300
Ge   10.72031000    5.37807000    0.05681000      0.335860    0.05944300   -0.05931100
Ge   12.03153000    8.67405000    9.10974000      0.570916   -0.46168800   -0.57209600
Ge    9.68372000   11.84840000   18.91438000      0.509712   -0.02744000    0.20195100
Ge   10.22152000   16.67333000    9.29087000     -0.171913    0.47795300   -0.21177900
Ge   11.70088000   15.72141000   18.74989000     -0.438492   -0.03803200   -0.25047400
Ge    9.48525000    0.16387000   10.19980000      0.722201    0.26881400   -0.66425600
Ge   14.39708000   22.51565000    1.17862000      0.095777   -0.09262100   -0.18223000
Ge   18.39916000    5.04723000    9.88979000      1.824964   -0.13137100    0.67184400
Ge   18.23407000    8.63571000   17.04591000      0.106207   -0.02560200   -0.18421900
Ge   18.26635000   15.09439000   10.82664000      0.034206    0.35625700   -0.07094000
Ge   17.60478000   12.17474000   18.08899000     -0.233418    0.11992400   -1.03487700
Ge   13.11529000   15.69088000    8.54284000      1.117949    0.27853200   -0.55936100
Ge   16.83475000   15.40616000    0.86521000     -0.844451   -0.41526700   -1.49816600
Ge   16.33173000    3.80798000    9.98573000     -1.492809   -1.31692900    0.19129900
Ge   19.26299000    2.93263000    0.21289000     -0.078070    0.85886000    0.17291100
Ge    1.54219000    3.69450000    9.50503000     -0.016130    2.19396500    0.93701400
Ge   21.34643000    3.56626000    4.02307000      0.136516    1.06768500   -0.05291000
Ge    0.74260000   10.45264000    9.38338000     -0.298839    0.20490600    0.19525000
Ge   21.80012000    9.81367000   18.39291000      0.272502   -0.49705700    0.28260500
Ge   20.65461000   15.34236000    7.95608000      0.972422   -0.61453500    0.59156300
Ge    4.45461000   14.71463000   18.04683000     -0.174591    0.74512600   -0.49241400
Ge   19.24349000    0.23539000   10.50717000      0.441742    0.27875900   -0.03368800
Ge   21.74578000   19.94195000    2.86063000      0.171044    1.60196900    0.32806000
Ge    4.19845000    7.29362000    6.85563000     -0.039114    0.23819700    0.27274500
Ge    1.95710000    7.83699000   17.77598000     -0.749032   -0.86892700   -0.32388800
Ge   20.79132000    9.80794000    3.88898000      0.184439   -0.09197400    0.20999000
Ge    3.52026000   13.30870000   14.95435000     -2.161341   -1.75438000   -0.74308800
Ge    5.07061000   18.63564000    4.83128000     -1.839298   -0.88242800   -0.84693700
Ge    0.77911000   18.71499000    0.07715000     -0.084646    0.24743800   -0.36584800
Ge    3.72156000   18.41697000   10.34834000      0.322860    0.33056300    0.97966000
Ge    1.82979000    0.80860000   17.95367000      1.785799    0.39650800    1.72054000
Ge    9.80943000    2.19968000    7.29653000     -0.137360   -0.16029000    0.83719100
Ge    7.48874000    5.69330000   17.04574000     -0.715427    0.31532300   -0.03512900
Ge    8.22896000   10.42660000    3.75373000     -0.875640   -0.90684500    0.21327400
Ge    9.74611000    7.69028000   16.37417000      0.293319    0.32060600    0.14075700
Ge    7.12441000   15.55464000    9.29118000      0.249017   -0.24320900   -0.81740500
Ge    9.10519000   15.24840000   15.78190000      0.276691    0.08614700    0.85748800
Ge   10.96961000   21.71505000    6.94240000     -1.001311   -1.20147900   -0.18445600
Ge   10.51720000    0.23235000   13.82671000      0.256852    0.69031800   -0.12299500
Ge   11.86633000    7.68837000    4.93511000     -0.155416   -0.97232200    0.14614200
Ge   15.12325000    3.90666000   16.42910000      0.695046   -0.13889400    0.13117300
Ge   14.39564000    9.14624000    6.53376000      0.769566   -0.08590600    0.41329100
Ge   15.02385000   12.51577000   15.05859000      0.534766    0.92509000    1.55287800
Ge   12.08623000   14.55039000    5.32986000      0.605377    0.15966900    0.63341100
Ge   14.47326000   18.45556000    0.32627000      0.062050    0.26430700    0.22472100
Ge   14.55057000    0.20660000    9.49693000      0.598775   -0.72699400   -0.47622700
Ge   17.09269000   21.44207000   13.94059000      0.469023    0.11332800   -0.47951600
Ge   21.59599000    4.35606000    8.48058000      0.621763    1.11847000    0.49504600
Ge   19.84809000    5.45301000   13.98277000      0.255833   -0.01692700    0.60858300
Ge   19.13334000   10.73734000    7.74705000     -0.176255    0.23269100   -0.39805400
Ge   21.40976000   14.94196000   16.45296000     -0.649376   -0.19902100    0.62975400
Ge   18.66079000   16.61397000    5.61744000      0.041223   -0.91431600   -0.54264000
Ge   17.37580000   16.99432000   16.63961000     -0.301925    0.13740400   -0.87430600
Ge   22.26671000    1.44855000    6.77782000      0.175679    0.03435400   -0.58601000
Ge   18.87250000   20.87080000   17.47867000      0.362037    0.44002500    0.35231900
Ge    6.53761000    2.62093000    6.78018000      0.439593    0.28107200   -0.69900000
Ge    4.72828000    2.92516000   12.97571000     -0.803103   -0.51785800    0.05389600
Ge    0.39426000    9.71122000    6.19105000      0.071757   -1.07910300   -0.06861500
Ge    2.14557000    7.24167000   11.12790000      0.255172   -0.12299100    0.60788500
Ge    0.54084000   15.69647000    4.22100000      0.176583   -0.24438800   -0.00432400
Ge    2.76866000   17.49334000   15.39395000      1.108215   -0.61261900   -0.26907800
Ge    3.52756000   21.92306000    9.99582000      0.371317   -0.84715200    0.75868300
Ge    7.64525000   18.97282000   16.02031000      1.457607   -2.05896000    1.14181600
Ge    6.69346000    3.65133000    2.92037000      0.097696   -0.07305300    0.02679400
Ge    9.20485000    3.30579000   17.05823000      1.159050    0.24395000   -0.13599500
Ge    8.29063000    7.43483000    4.16528000     -0.096572    0.65956500    0.25597600
Ge    7.15351000    9.53432000   13.65612000      0.159811    0.15373000    0.11250300
Ge    6.33787000   14.45873000    4.59884000     -0.517214    0.36816600   -0.01433600
Ge   11.58868000   11.80884000   15.10853000      1.146538   -0.06851000    0.04991900
Ge    7.38176000   20.58930000    3.87862000      0.698052   -0.43699300    0.44737300
Ge    9.50854000   16.84475000   12.65278000      0.790615   -0.51555000   -0.50576000
Ge   12.39042000    1.80606000    4.95543000     -0.689082    0.22498200    0.20639400
Ge   12.66226000    4.24424000   14.49745000     -0.914580   -0.47658900   -0.02904400
Ge   17.79154000    4.35706000    5.43837000     -0.739178   -0.43021600   -0.49813600
Ge   14.18542000    9.13408000   14.58317000     -0.028255   -0.01551000   -0.30545700
Ge   14.84300000   13.24379000    3.55485000     -0.379003   -0.20940300    0.53668900
Ge   13.28928000   15.70758000   12.40010000      0.289205   -0.12931800   -0.93509500
Ge   10.84579000   18.80789000    3.79198000     -0.622845   -0.82337600    0.48864700
Ge   12.12646000   19.84185000   16.76801000     -0.184477   -0.49498600   -0.13920100
Ge   22.39146000    5.59986000    5.79483000      0.302752    0.57589300    0.60436700
Ge   22.24268000    3.58833000   13.12389000     -0.431318   -0.02437300    0.56863600
Ge   19.47923000    7.86812000    7.04607000     -0.043822    0.66109400   -0.13450600
Ge   17.19825000   10.35920000   12.60164000      1.325907   -0.97139600   -0.12521800
Ge   19.74469000   17.02290000    0.58011000      0.780394   -0.39966100    0.44906600
Ge   19.39372000   16.03811000   13.78930000      0.362019   -0.41567600    0.25484400
Ge   19.34109000   20.15927000    5.55152000      0.356477    1.35799500   -0.67172300
Ge   21.57456000   21.12074000   13.54436000      0.574216    0.35139100   -0.37054900
Ge    3.32214000    2.54524000    2.89486000     -0.094986   -0.21009800    0.15353100
Ge    6.20745000    0.44148000   13.09559000     -0.733616   -0.17585300   -0.35938200
Ge    3.40385000    8.30021000    3.65823000      1.894806   -1.71192500    1.42795800
Ge    6.61046000    4.46252000   14.62493000      0.958348    0.12045600   -0.24659100
Ge    4.47212000   12.21142000    2.20542000     -0.302036    0.68604300   -0.06530700
Ge    3.72972000   10.80852000   12.17559000      0.374408   -0.54780000    0.02904900
Ge    3.36401000    0.56834000    6.75128000      0.479987   -0.34951800   -0.21847100
Ge    7.39672000   19.52946000   12.80763000     -0.414830   -0.23481400   -1.24859000
Ge   10.29955000    3.16611000    2.53811000     -0.278579    1.12988800   -0.47796600
Ge    8.97277000    4.54351000   12.25980000      0.452718   -0.18040700   -0.09226300
Ge   12.40596000    8.57238000    1.17655000     -1.223527    0.36805900    0.04395700
Ge   11.07296000    7.78411000   12.17950000      0.356558    0.67429600   -0.07711700
Ge    8.33623000   13.84020000    1.73702000      0.287438   -0.07907300    0.23640300
Ge    7.95627000   12.58723000   10.96984000      0.586022   -0.89939900   -0.16011500
Ge   11.82213000   21.08184000    1.21323000      0.587682    0.20845000    0.88962700
Ge   11.24902000   19.38563000   12.96407000     -0.353054   -0.37666400   -1.31328500
Ge    0.21979000    0.34192000   16.34091000     -2.197457    0.99532600   -1.98420300
Ge   12.90012000    1.93855000   10.54540000     -0.984003    0.10952000    0.65687700
Ge   16.00978000    6.67881000    1.99501000     -0.176735    0.07783900   -0.19779300
Ge   15.14509000    6.55439000   11.03172000      0.219323    0.39290600    0.64487300
Ge   18.43482000   11.50102000    1.87463000     -1.328630    0.55022600   -0.34672200
Ge   16.78064000   17.05009000    9.55521000      0.256357   -0.18157800    0.21537300
Ge   17.87143000   21.09581000    2.16585000     -1.908348    0.63902100    1.96284700
Ge   15.34365000   19.87843000   11.11461000     -0.574851    0.29521600   -0.24262200
Ge   21.67427000    1.68088000    2.41010000     -0.434813   -0.62982900   -0.27664400
Ge   22.27414000    1.53633000   10.37674000     -0.606854   -0.10769600    0.32125100
Ge    0.84371000    8.20730000    2.06511000     -0.998297   -0.25932800   -0.73204100
Ge   21.72417000    8.96402000   13.41069000     -0.262386    0.80927400    0.38671100
Ge   20.32715000   12.79847000    0.71531000     -0.086538    0.72431600    0.79267500
Ge    0.39378000   14.84479000    9.15541000      0.100320   -0.87612800    0.59121700
Ge    2.29627000   19.81218000    4.86522000      0.911655   -0.79027800   -1.01661100
Ge   19.61576000   19.29036000   10.58053000      0.182144    0.45307400    1.03824900
Se   21.67734000    0.35320000    0.39966000     -0.557723   -0.08413900   -0.37147700
Se    1.75107000    1.61390000    8.54409000     -0.130415   -1.74155900   -0.48343000
Se    2.39192000   10.14840000    2.91256000     -1.118949    1.79505600   -0.82361800
Se   22.34185000    6.74997000   12.65107000      1.191046   -0.75640100    0.06917000
Se   22.16223000   12.82092000   18.16202000      0.701341    0.00734700   -0.87957900
Se    2.14446000   12.59599000    9.19506000     -0.177964    0.45322700    0.05528900
Se    2.73784000   16.89081000    5.14071000      0.171021   -0.52370200   -0.15954700
Se    2.19786000   16.19691000   10.72772000     -0.333898    0.24705400    0.36807900
Se    4.96259000    2.14842000    0.98629000     -0.176609   -0.14014600    0.70453300
Se    6.21056000    4.44878000   11.73831000      0.230953    0.22022500   -0.13291200
Se    6.18490000    6.36524000    2.07093000      0.735746   -0.88515600    0.14241700
Se    8.48143000    7.36972000   12.52396000     -0.075312   -0.37146000    0.32685800
Se    7.90022000    9.93769000    0.01080000      0.054651   -0.20985200   -0.18550400
Se    5.83234000   11.85412000   14.10278000      0.641126   -0.56882500   -0.35090400
Se    5.65919000   20.44305000    2.11041000      0.104352   -0.83256900   -0.47215200
Se    8.76803000   18.29855000   10.86656000      0.153204    0.17999400    0.03296000
Se   12.12240000    2.11886000    0.59859000      0.161938   -0.41920200    0.85109600
Se   12.81910000    1.76395000   13.07040000      0.116822    0.27418600    0.31715800
Se   12.54526000    7.52671000   18.00265000     -0.428181   -0.38920500    0.28027000
Se   10.08420000    9.49119000   10.43481000      0.171648    1.42904100    0.02244100
Se   13.03238000   13.48830000    1.76313000      0.705326    0.84295000   -0.12779100
Se   12.67102000   10.88947000    7.83532000     -0.029245   -0.11599300    0.38231700
Se   14.16252000   17.03567000    2.47793000     -0.257241   -0.14464700   -0.07334300
Se   12.74012000   17.43112000   10.16268000      0.111946    0.08253300    0.30825600
Se   18.91401000    3.61287000    3.16344000     -0.919304    1.07949200   -1.89608100
Se   16.42529000    1.50809000   13.30664000     -1.797162    0.13822000   -0.08886700
Se   16.01237000    7.91803000   18.10056000      0.109572    0.54960500   -0.06209200
Se   17.82285000    5.00656000   12.44954000     -0.471360    0.59282700    0.27974300
Se   18.53737000    9.29008000    0.86885000      0.368484   -0.27368300   -0.06600900
Se   17.12386000   14.77798000    6.93932000     -0.659962    0.47704200   -0.47302500
Se   20.97119000   19.74112000    0.62701000     -0.311631    0.08973800   -0.30228800
Se   16.07518000   19.05437000    7.75275000      0.242314    0.15930200    0.00691400
Se    1.31839000    1.75006000    1.50019000      1.316775   -0.22530000    0.46739700
Se    5.55300000    7.70801000   10.06607000      0.918337   -0.03994500   -0.52166000
Se    6.32130000   10.42659000    1.60876000      0.106799   -0.29468700    1.68440700
Se    4.73020000   11.81555000    9.94041000     -0.618415   -0.32881800   -0.05332600
Se    2.79049000   15.63593000    0.99417000      0.560512    0.16983300    0.26347600
Se    2.67807000   13.06659000   12.50112000     -0.001169    0.59589300    0.50738700
Se    3.81459000   21.57438000   18.43367000     -0.568343    0.19788700   -0.61149700
Se    5.62161000   20.22397000   10.41948000     -0.035367    0.53013700   -0.43856900
Se   12.20663000    4.95776000    2.54551000     -0.013554   -0.46370200    0.04731300
Se    7.08469000    5.14078000    7.42772000     -0.008379   -0.17985600   -0.42157000
Se   12.00133000   11.06910000    1.28526000     -0.490843   -0.93603600   -0.36426700
Se    6.77621000   10.54184000   10.19102000      0.618547    0.15651600    0.78055400
Se   10.09148000   15.63010000    2.06154000      0.367805   -0.38077100   -0.64457100
Se   12.53524000   12.57388000   12.88040000      1.002551    0.55471100   -0.29122200
Se   10.60792000   21.35654000   18.04898000     -1.054029    0.19535900   -0.43304400
Se    8.46796000   21.92529000   12.17238000     -0.896514    0.20507900    0.86680100
Se   14.47393000    5.08060000    0.68074000      0.553221    0.26711400    0.00144800
Se   16.84534000    6.52066000    8.71401000     -0.229851    1.94855700   -0.07295600
Se   15.60694000   10.54217000   18.41322000     -0.931587   -0.17260000    0.99115900
Se   15.35929000   11.76047000   12.87856000     -1.594685    1.13386000   -0.65799000
Se   18.07246000   15.24596000    2.84834000      1.415713   -0.28626900    1.17290900
Se   16.37087000   11.14589000   10.10040000     -0.036522   -0.46929800   -0.27512200
Se   18.12958000    0.09222000    0.65113000      0.241933    1.18761600   -1.74830600
Se   15.01120000   21.07000000    7.13569000      0.571647    0.59672700   -0.01288800
Se   22.23263000    4.36177000    1.62672000      0.073103    0.29298200   -0.66060200
Se   20.74626000    3.98432000   10.88723000      0.750545    0.14296400    0.46849800
Se   21.21765000    6.08250000    0.42618000     -0.561829    0.09551400    0.43310100
Se   20.83710000   11.05180000   11.99583000      2.334228    0.41060300    1.62533500
Se   18.95314000   14.73345000   18.28332000     -0.088252   -0.05803400    0.06966000
Se   21.29921000   16.60819000   12.32802000     -0.214007    0.57605300    0.00736700
Se   21.54859000   22.51416000    4.13233000     -0.315889   -1.08226100   -0.13570800
Se   17.59711000   20.97331000   10.90636000      0.063092   -1.03355000    0.18117800
Se    3.51877000    5.39091000    8.99233000     -1.870746   -0.40440700   -0.49237200
Se   21.71968000    3.31747000   17.45185000      0.230522   -0.03590200   -0.50164800
Se    2.65768000    9.37060000    8.19069000     -0.230975   -0.61701200    0.00067700
Se    1.86045000   10.13154000   17.01377000     -1.178843    1.17955700   -0.30955800
Se    4.47569000   17.78445000    8.25624000      0.282619   -0.36011100   -1.27045500
Se    0.44467000   17.86802000   15.16830000     -1.269699    0.84514500    0.54760000
Se    0.96757000   18.85150000   12.88270000      0.082136    0.44187100   -0.50329900
Se    1.22358000   20.60526000   17.32739000      0.802424   -0.44856300    0.37732400
Se    4.90211000    3.72151000    5.04396000      0.039070   -0.05800500    0.10369500
Se    4.86852000    5.91562000   17.86746000      0.971823   -0.18654200    0.77340200
Se    4.74699000    9.48455000    5.51590000      0.331007   -0.42298600    0.02930000
Se    3.49595000    6.78920000   16.14332000     -0.306238    0.60594300   -0.39211400
Se    6.72795000   14.53907000   11.61398000      0.446479   -0.04110600    0.81286200
Se    6.87838000   17.05929000   17.66026000     -0.559812   -0.40532800    0.81657300
Se    9.79555000   18.28148000    6.16651000     -0.783074   -0.29352400   -0.10609000
Se    5.74364000   20.15906000   17.83395000      0.159634   -0.50837500    0.26761700
Se    9.97600000    2.65472000   10.34193000      0.342856   -0.64467700   -0.34135000
Se   12.70553000    4.06894000   17.04278000     -0.609135   -0.44895500   -0.88564500
Se   13.64514000    6.80689000    6.69219000     -0.743407    0.91876500    0.15357500
Se   13.73452000   11.07078000   16.59550000     -0.219092   -0.45376500   -0.52183300
Se   11.23272000   14.47563000    7.90464000     -0.417485   -0.30975900   -0.79535400
Se   14.12136000   15.59215000   17.01111000      0.324171    0.61624000    0.52584600
Se   12.17723000    1.03051000    7.84575000      0.268417    0.77726200   -0.08031100
Se   14.39453000   21.33553000   17.88759000     -0.435972   -0.48925900   -0.24483200
Se   13.86014000    4.20191000   10.39354000      0.469401    0.48106800   -0.21068600
Se   20.49953000    1.72850000   15.78753000      0.983876    0.50361900    0.01992700
Se   19.15855000   10.47129000   10.76962000     -2.212449   -0.74593500   -1.30662900
Se   17.28474000   10.68306000   15.80937000      0.447603    0.28994500   -0.52085000
Se   14.42700000   16.35094000    6.49277000     -1.027463    0.00984500    0.46533300
Se   20.36827000   13.60806000   14.51616000     -0.469444   -0.02348100    0.05348800
Se   19.14135000   21.57033000    7.94297000     -0.065496   -0.61499900   -0.50912300
Se   18.66319000   19.13880000    2.90659000      1.344377   -2.54323800   -0.11942000
Se    5.30362000    1.03636000    8.25829000     -0.457652    0.16103600   -0.02373300
Se    3.41700000    2.93417000   18.41591000     -0.005289    0.41303500   -1.12755700
Se    8.83931000   10.10107000    7.03147000     -0.022722    0.64548500    0.89558100
Se    3.79501000    9.72112000   18.49100000      0.998314    0.05227500    1.38164200
Se    6.61860000   17.12316000    5.80266000      0.629246   -0.24865100    0.24752300
Se    4.68117000   12.27473000   18.45132000     -0.120734    0.59542600   -0.09383000
Se    1.58476000   19.78167000   10.45469000      0.654922    0.21884200    0.19449600
Se    2.86485000   18.64487000    1.56789000      0.830636   -1.31056200   -0.40132900
Se    8.13199000   22.26630000    8.32123000      0.668698   -0.05112500   -0.07656400
Se    8.44269000    3.48630000    0.86343000      0.640822   -0.05449800    0.17683700
Se    9.88271000    5.63474000    8.68132000      0.140927    0.22362600    1.26624300
Se    8.54445000    6.73155000    0.16090000      0.280121    0.39037800   -0.73514200
Se    8.11009000   12.09010000    5.76961000      0.157869   -0.13547400   -1.27922000
Se    7.53772000   14.65385000   17.68472000      0.004023    0.35476500   -0.21334100
Se   11.37003000   21.23952000   10.81523000      0.192158    0.43388900    0.04614800
Se   10.71756000   13.72886000   17.39567000      0.362627    0.55342400    0.44098700
Se   16.41217000    0.70944000    7.39245000     -0.786800   -0.87062700    0.61362400
Se   16.10504000    3.43653000    0.65148000      0.110524   -0.28616800   -0.14556300
Se   16.14869000    4.67099000    7.57973000     -0.571396   -1.34384400   -0.63660700
Se   14.88465000    7.15944000   16.09297000      0.123400   -0.64338800    0.03443500
Se   15.72068000    9.02451000    9.23589000      0.474708    0.92872500   -0.23303100
Se   14.35350000   13.04491000   18.62291000     -0.004361    0.37044300    0.99144300
Se   13.12727000   18.72306000    5.68619000      1.057144   -0.07669100   -0.70425400
Se   16.89811000   17.86459000   18.85307000      1.067815   -0.02143700    0.67589100
Se   20.47114000    2.23830000    8.43579000     -0.028387   -1.43676400   -0.43034900
Se    0.88092000    0.59840000   13.84174000     -1.169495   -0.90414800   -0.16914000
Se   20.20039000    7.92843000    9.42553000     -0.161589   -0.38120000    0.63502700
Se   22.10873000    7.82701000   16.81143000     -0.047691   -0.82057900    0.20044200
Se   21.26985000   11.43145000    6.65101000     -0.530911    0.12709200    0.78438500
Se   20.41001000   11.30668000   17.02102000     -0.224425    0.13864200   -0.13134500
Se   19.13347000   17.25811000    7.98043000     -0.705377    0.56367700    0.74467200
Se   19.99566000   17.01068000   15.93592000     -0.190643    0.67021100    0.01809000
Se    3.69132000   22.12460000   12.51043000      0.470942    0.23009200   -0.35674800
Se    2.64590000    1.53088000   15.05836000      0.981999    1.14923900    0.58721500
Se   22.23347000    7.74306000    8.26813000     -0.011742   -0.27225500   -0.32738100
Se    0.84496000   10.33474000   14.70468000     -0.688877   -0.37334300   -0.37160500
Se    3.61727000   14.51874000    5.23270000      0.478043    0.47927800    0.11150400
Se    2.00779000   14.03096000   16.70800000      0.291043   -0.18640600    0.14999800
Se    0.25974000   16.89838000    8.02425000      0.169207    0.99951500   -0.33853700
Se    2.62462000   19.88442000   14.61868000     -0.390683    1.17759100   -1.22743300
Se    6.78416000    0.46435000    3.31514000      0.076150    1.29406600   -0.52893500
Se    7.48777000   22.29100000    1.13679000     -0.486380    0.27536200    0.36436200
Se    9.03354000    7.87169000    6.62904000      0.449046   -1.18045700   -0.53465400
Se    4.37257000    4.10821000   15.31397000     -0.595849   -0.68375900   -0.47004900
Se    5.20781000   12.02608000    4.66717000      0.067976    0.79222300   -0.38382700
Se   10.15085000   13.52299000   14.05145000     -0.867905    0.40799200   -0.32507800
Se    8.33885000   17.97682000    3.76204000     -0.586009   -0.33361900    0.52987100
Se    7.51882000   16.73968000   14.09496000      0.361431    0.39715800    0.69992300
Se   14.17670000    0.25777000    4.07862000      0.247831   -1.29639400    0.80223000
Se   13.47755000    0.28456000   16.21376000      0.467955   -0.07373100   -0.01037100
Se   12.39484000   10.07627000    4.87286000      0.906908   -0.06061700    0.67578200
Se   11.53209000    6.46827000   14.24979000      0.047472   -0.38921600    0.97108400
Se   13.97712000   12.84857000    5.87511000     -0.230530    0.27996100   -1.10600900
Se   13.31948000   14.42917000   14.97915000     -0.287558   -0.85820700   -0.71086200
Se   11.71480000   18.76892000    7.48112000     -0.039317    0.28833300    0.70380100
Se   12.10803000   18.33305000    1.61992000     -0.191393    0.20531900   -0.19655700
Se   19.49059000    2.18895000    4.89765000      0.120050   -2.06488500    2.59886300
Se   18.40666000    0.73349000   16.41721000      0.319594   -0.02849000    0.46774700
Se   19.64861000    5.47020000    6.55503000      0.316472   -0.32608600    0.25803100
Se   18.98180000    6.13276000   16.52673000     -0.042796   -0.75297500   -0.40624200
Se   19.33024000   11.97130000    4.05835000     -0.037075   -0.14373500    0.80631000
Se   17.49483000   14.69677000   13.17667000     -0.666792   -0.32890300    0.11753900
Se   17.31957000   18.77413000    5.05447000     -0.834630   -0.12817100    0.40577400
Se   17.30952000   19.88470000   15.93236000     -0.343755   -0.78800100    0.17504300
Se    2.13332000    7.07586000    5.55422000     -0.120123    0.04683600   -0.20367300
Se    2.13858000    6.56430000   13.70832000     -1.133113   -0.17283100   -0.61177000
Se    1.13222000   11.62069000    4.70073000      0.740103    1.00378000    0.09712200
Se    3.70495000   10.87043000   15.37592000      0.589897   -0.00452600   -0.80636000
Se    5.72025000   13.91722000    7.77282000      0.475583    0.33024900    0.06437300
Se    2.90436000   17.14827000   17.72078000      0.304398    0.38699700    0.32115500
Se    2.10514000   19.89862000    7.14568000     -0.725722    0.48927900    1.71038900
Se    6.79024000   20.87675000   14.92856000     -1.058794    2.65102800   -0.89944100
Se    9.51799000    0.61622000    5.21933000     -0.900648   -0.09645500    0.55596000
Se    7.12719000    2.25577000   17.63556000     -0.321151   -0.62398200    0.12574000
Se   13.49421000   12.00488000    9.88088000     -1.187261   -0.96135500    0.25370400
Se   10.43819000   10.35833000   16.86545000     -0.333598   -1.01096200    1.91936900
Se    8.37427000   13.19596000    8.65082000     -0.495621    0.97384400   -0.00446200
Se   11.80278000   16.67389000   14.06900000     -1.546496    0.86544800    0.39477300
Se   11.89280000   20.80083000    4.53135000      1.197020    0.91675000    0.16520300
Se   10.19079000   17.61215000   17.60173000      0.478956   -0.12144000   -0.29112300
Se   10.65765000    4.54131000    6.84887000      0.966297   -0.14494800   -0.83087500
Se   17.99860000    3.98134000   17.16833000     -0.023599    0.31136900   -0.44815900
Se   16.80410000    8.18180000    4.91030000      0.207569    0.32555700    0.29112400
Se   16.34270000    8.13997000   13.13709000     -0.044768   -0.20329900   -0.16388700
Se   17.72916000   10.76481000    5.54395000      0.300965    0.66041400    0.32229600
Se   14.97393000   17.53714000   15.62951000     -0.435149   -0.54055800    0.96024800
Se   15.54538000    2.11015000    4.69972000      0.360574    0.73185000    0.82323100
Se   18.41850000    2.57060000   13.16330000      1.467752    0.63657300   -0.04304800
Se    1.07569000    3.47033000    5.21719000      0.518423   -0.83419100    0.41007100
Se    0.37978000    4.64199000   15.80711000     -0.470247   -0.11426800    0.14489700
Se   18.58473000   13.72046000    8.34939000      0.396777   -1.38315700    0.42265100
Se    0.06742000   13.38797000   13.46903000     -0.375433   -1.24408400    0.03696900
Se   20.85330000   14.75135000    5.61683000      0.155064    0.19951000   -0.48059100
Se   20.07757000   19.32302000   13.36294000     -0.632019   -0.55426800   -0.52919200
Se   20.51842000   19.30937000    7.65317000      0.924232    0.53150700    0.78552200
Se   21.51222000   20.87044000   16.21459000     -0.784189   -1.17266300    0.40041800
Se    4.26334000    0.53392000    4.36382000     -0.452929    0.12095100   -0.22216400
Se    7.12558000    1.93826000   15.10306000      0.033324   -0.16820500   -0.37499600
Se    2.38277000    6.17599000    1.12737000     -0.476950    0.22310400   -0.14448600
Se    4.68971000    7.72439000   12.22275000      0.004707    0.20367100    0.02831000
Se    1.86436000   13.67230000    1.56727000     -0.516479   -0.82933500    0.54718600
Se    5.05130000   14.84212000   15.25640000      1.877786    1.89667800    0.35383000
Se    5.42685000   17.71017000    2.45912000     -0.057359    0.67982500   -0.21987400
Se    5.47412000   17.39066000   12.03894000     -1.358494    0.26245900   -0.13805400
Se   10.27068000    0.82639000    2.98537000      0.530928   -0.43067300   -0.32097200
Se   10.96536000    0.99027000   16.88632000     -0.453817    0.47765300   -0.01429200
Se   10.37044000    7.14866000    2.62634000      0.466800    0.35343700   -0.45263600
Se    7.23756000    8.15963000   16.13971000      0.162713   -0.00254900   -0.79742400
Se   10.56802000   11.14207000    3.97318000     -0.144087    1.05035300   -0.66748200
Se    9.83124000   11.62303000   12.45639000     -1.154521   -0.35506100   -0.79248500
Se    9.52438000   20.32550000    2.07604000     -0.185858   -0.03294400   -0.68597200
Se   14.97012000   17.92663000   13.02413000      0.758352    0.18561600   -0.95983500
Se   13.80573000    3.56745000    6.02094000      0.807334   -0.16927400   -0.34337900
Se   15.90484000    1.04187000   15.93060000     -0.502686    0.42733300   -0.03195900
Se   15.76433000    6.06704000    4.45378000      0.435683   -0.82788000    0.07440600
Se   13.65594000    8.65858000   11.19517000     -1.463153   -0.11052500   -0.14429100
Se   15.96057000   11.30579000    2.79243000      0.255755   -0.15567700   -0.42316900
Se   16.43369000   14.45277000   16.32785000      0.471958   -1.34173200    0.16212500
Se   15.85499000   15.44871000    3.93115000     -0.191297    0.25802400   -0.15975600
Se   14.43207000   21.58246000   13.03664000     -0.008024   -0.07423200   -0.64204600
Se    0.00018000   21.28217000    6.38013000      0.592053   -0.77127300    0.32676900
Se   19.49662000    0.09417000   13.13909000      0.363302    0.25472700    0.40890400
Se   21.89316000    7.04810000    3.81028000      0.015807    0.31423700   -0.34649700
Se   19.56500000    7.90195000   13.85692000     -0.495267    0.89675200    0.21251900
Se    0.75155000   13.75089000    6.11907000     -0.235398    0.44778900   -0.32109100
Se    0.56240000   15.39648000   14.65293000      0.892529    0.09237700   -0.71509000
Se   21.77728000   17.95938000    3.93234000     -0.401196   -1.17136700    1.07063500
Se   21.87173000   21.26906000   11.07172000     -0.340913    0.78454700   -1.24338200
Se    2.84086000    5.07780000    3.17569000      0.338980   -0.48145000    0.36338600
Se    1.81536000    3.18305000   12.03237000      0.931339    0.15514300   -0.87543000
Se   22.00007000   11.17074000    1.96190000     -0.487564   -0.50435800    0.14281200
Se    1.38006000    9.57582000   11.74894000      0.414933    0.78477700   -0.48619100
Se   22.17499000   16.69053000   18.60381000     -0.463216   -0.87814300   -0.24344100
Se    3.37967000   16.02864000   13.03059000      0.297375    0.62061000   -0.36410800
Se    1.63549000   20.34150000    2.38994000     -0.601217    2.61729400    0.50943400
Se    4.73249000   19.35435000   15.39966000      0.823484   -0.24571200    0.85166500
Se    8.73385000    4.49828000    4.19193000     -0.133434   -0.39831400    0.27197200
Se    9.99963000    3.08238000   14.10866000     -0.055782   -0.12040100    0.65094800
Se    5.93563000    6.47443000    4.45824000     -0.210426   -0.04356800    0.49642300
Se    8.47172000   11.31844000   16.10344000     -1.026897    0.62212700   -1.27887400
Se    6.11891000   15.00571000    1.82142000     -0.188548   -0.48891600    0.77523900
Se   10.31915000   15.01925000   11.07744000     -0.211978   -0.15218700    0.92933200
Se    5.50671000   20.70749000    6.03684000     -0.561342    2.05862300   -1.14194800
Se   10.01692000   20.32544000   14.86642000      0.261803   -0.32013200    0.46798500
Se   13.61509000    2.48615000    2.68176000     -1.214576    1.22394300   -1.24190000
Se   11.34435000    5.39018000   11.49827000     -0.448897   -0.17563000   -0.88435300
Se   13.94542000    8.11710000    2.89945000      0.535996   -0.08081700    0.05830300
Se   11.00757000    9.48645000   14.19392000      0.227402   -0.18961700   -0.12289700
Se    9.26276000   14.01672000    4.37912000     -0.680608   -0.00949800    0.00716300
Se   14.47363000   14.03937000    9.71757000      1.160942    1.00028500   -0.24426100
Se   15.45451000   20.28123000    2.12213000     -0.680624    0.12693800   -0.58772500
Se   13.51474000   19.59750000   14.05368000      0.192840    0.31381300    0.73097900
Se   18.65193000    5.41818000    1.29640000      0.446903    0.12907100   -1.14144900
Se   14.88101000    4.96638000   14.05803000      0.475240    0.04780000   -0.24940100
Se   18.73458000    8.17952000    3.01384000      0.163303   -0.11858200    0.46917300
Se   20.80482000   14.50435000   11.47045000     -0.200481   -0.51381700   -1.39196800
Se   20.78270000   14.56937000    2.28222000      0.083546    0.65028300    0.35960200
Se   17.97910000   17.77634000   11.82233000     -0.661927   -0.72803300   -0.61591700
Se   17.74278000   22.00666000    4.42107000     -0.429475    0.76661100   -0.15236600
Se   16.54969000    1.35639000   10.71300000      0.041140    0.42686800   -0.79758300
