384
22.54784000 22.54784000 18.93360000
Ge    6.06991000    5.13378000    9.39138000     -0.820577    0.91525100   -0.94127600
Ge    4.44015000    7.70752000    1.14844000     -0.015847   -0.53966900    0.57824100
Ge    3.78563000   11.43009000    6.95397000     -0.669917    0.63085400    0.57866900
Ge    5.73041000   10.65773000   16.75514000      1.238838    0.11454000    1.30739500
Ge    4.21465000   14.17739000   10.19839000      0.245025   -0.24885200    0.35739700
Ge    8.86780000   17.59414000    0.68768000      0.020708    0.04308300   -0.04146400
Ge    6.25467000   19.36863000    8.25122000      0.493755   -1.13374000   -2.43427900
Ge    4.87687000    1.32362000   16.45689000     -0.234246    0.24324700   -0.11554700
Ge    8.66272000    7.48815000    9.93948000     -0.728648    1.62412300    0.63431200
Ge   10.57297000    5.37688000    0.03720000      1.123459    0.01014900    0.09683400
Ge   12.30476000    8.52054000    8.87877000     -0.152352    0.19321500    0.36028500
Ge    9.72711000   11.65094000    0.08349000     -0.257762    0.13587300    0.66299400
Ge   10.05334000   16.72802000    9.12860000      0.440682   -0.76232200    0.67667100
Ge   11.59502000   15.99190000   18.48219000      1.331478    0.08105200    1.77630800
Ge    9.34866000    0.05593000    9.96868000      0.221061   -0.69562500    0.65503200
Ge   14.27843000    0.18704000    1.43755000     -0.014523   -0.00619700   -0.52933900
Ge   18.69409000    5.23390000   10.13496000      0.068910    0.22544100   -0.67978400
Ge   18.07939000    8.49808000   16.77047000     -0.149975    0.42512000    0.61838200
Ge   17.99521000   15.31852000   10.90800000      0.255113   -1.25194100    0.13004900
Ge   17.77730000   12.09837000   17.82228000     -0.138577   -0.22311800   -0.85977800
Ge   13.25813000   15.56081000    8.53436000     -0.332485   -0.30057700    0.15289800
Ge   16.67510000   15.37817000    0.89835000      0.321019   -0.25465600    0.10400300
Ge   16.28402000    3.50720000   10.07589000     -0.373495    1.01504400   -0.56846900
Ge   19.17610000    3.14292000    0.31343000      0.041866   -1.33252900   -0.54473400
Ge    1.72424000    4.12904000    9.72713000     -0.993359   -0.95637000   -0.23211600
Ge   21.26468000    3.50344000    4.23964000     -0.469465    0.11368400   -0.44078700
Ge    0.63622000   10.69520000    9.56314000     -0.375389   -0.50295200   -0.64874000
Ge   21.75959000    9.70747000   18.31460000     -0.200052   -0.39732100    0.36416000
Ge   20.67216000   15.17578000    7.84297000     -0.695676    0.33543000    0.03417800
Ge    4.46784000   15.07583000   17.83375000     -0.434718   -0.13586100    0.05478800
Ge   19.28120000    0.64929000   10.32775000     -0.005556   -0.91862600    0.29123700
Ge   21.77978000   19.96524000    3.02755000     -0.307134   -0.89120500   -0.44760700
Ge    4.18394000    7.06390000    6.91058000     -0.020290    0.61031700   -0.80260800
Ge    1.95916000    7.95165000   17.85643000     -0.796847    0.19345400   -0.06109600
Ge   20.78959000   10.05017000    4.30669000      0.663425   -0.63250100   -0.28028200
Ge    3.59450000   13.21638000   14.82316000      0.705813    1.15863200   -0.17830100
Ge    4.69525000   18.37013000    4.75860000      0.230946   -0.99001900    0.56096100
Ge    0.78328000   18.66099000    0.23004000     -0.409682    0.12240800    0.37979300
Ge    3.64263000   18.45424000   10.51416000     -0.643470   -0.03922800   -2.74426600
Ge    2.08601000    0.74223000   18.06550000     -1.287341    2.09429700   -1.07516200
Ge    9.99333000    2.18461000    7.35602000     -0.364614    1.02776000    0.01065700
Ge    7.02228000    5.78564000   16.90288000      1.293391   -0.18236100   -0.11640000
Ge    8.24282000   10.28908000    3.73396000      0.260241   -0.70542200    0.56472300
Ge    9.72816000    7.47394000   16.44524000      0.377080    0.61355900    0.50712100
Ge    7.34471000   15.39445000    9.71611000      0.131796    0.68611600   -0.19575800
Ge    9.35953000   15.12642000   16.11430000     -0.337375    0.25579500   -1.25242900
Ge   10.98273000   21.64641000    7.00779000     -0.291751    0.36111500   -0.34076000
Ge   10.60498000    0.77278000   13.56967000      0.293171   -0.67297000    0.28941800
Ge   11.84793000    7.62026000    5.21950000      0.245781    0.07639400   -0.11058600
Ge   15.29974000    3.71617000   16.33643000      0.296651   -0.31576700    0.58069400
Ge   14.66334000    9.14808000    6.71821000      0.163793   -0.14552600   -0.82489000
Ge   14.81116000   12.86023000   15.37602000      0.522086   -0.92612400   -0.29053300
Ge   12.04796000   14.61294000    5.23202000      0.809764   -0.28375300    0.69752100
Ge   14.65957000   18.60968000    0.34014000     -0.377674   -0.31101300   -0.92964300
Ge   14.43022000   22.43033000    9.11117000      0.168563    0.29938200    0.15383400
Ge   17.46202000   21.55967000   13.76305000     -0.857697   -0.75476600   -0.01164600
Ge   21.90507000    4.38682000    8.30597000     -0.300285   -0.08104200    0.43132500
Ge   19.87500000    5.44599000   14.15701000      0.691255   -0.15750800   -2.11006500
Ge   19.02470000   10.77922000    7.68149000      0.355081    0.11618400    1.56254900
Ge   21.24564000   15.02687000   16.60562000     -0.392025   -0.26399200   -0.31713600
Ge   18.51828000   16.42333000    5.64503000      0.345596    0.99907100    0.20320200
Ge   17.25940000   17.29571000   16.29054000     -0.191440    0.60752100    0.27898500
Ge   22.08823000    1.38312000    6.64101000      0.419244   -0.30945200    0.04858300
Ge   18.94138000   20.92115000   17.71205000     -0.279549    0.17571100   -0.78476800
Ge    6.39473000    2.57159000    7.02359000      0.009326   -0.39756800   -1.21066000
Ge    4.72294000    2.86345000   13.05912000     -1.047997   -0.39522500   -0.43247500
Ge    0.63099000    9.77454000    6.41190000     -0.484602   -0.28272400   -0.62413900
Ge    2.37666000    7.09348000   11.17817000      0.247790    0.51972800    0.36033700
Ge    0.51495000   15.65812000    4.18355000      0.722875    0.23267200   -0.63437300
Ge    2.73521000   17.08869000   15.19021000     -0.730293    1.44411400    1.33312100
Ge    3.29676000   21.69726000   10.08054000      2.010648    1.99165500   -1.07851100
Ge    7.87983000   18.98233000   16.11417000      0.462191   -0.19910400   -0.38103400
Ge    6.67826000    3.57735000    2.63760000      0.109745   -0.00834100    0.11139300
Ge    9.32691000    3.24536000   16.75744000      0.112791    0.09029200    0.66843700
Ge    8.46921000    7.19342000    4.25056000     -0.288773   -0.01842000   -0.06798000
Ge    7.53029000    9.34126000   13.52589000     -0.086161    0.31448100    0.21858200
Ge    6.13260000   14.38451000    4.58107000     -0.146878    1.62600000   -0.63968300
Ge   12.11131000   11.81661000   14.90767000     -1.062297    0.69308700   -0.31632900
Ge    7.42181000   20.52599000    4.28357000     -0.172074    0.49738700   -0.47117800
Ge    9.74660000   16.79317000   12.76023000     -2.297857   -0.94787200   -1.68221100
Ge   12.28407000    1.92608000    4.59293000      0.096582   -0.81908100    0.82608000
Ge   12.44146000    4.10947000   14.60943000      0.889336    0.14776500   -0.76232600
Ge   17.86231000    3.95014000    5.41519000     -0.232350    0.50604500    0.39758100
Ge   14.23539000    9.26912000   14.41507000     -0.341572   -0.03136900    0.46062100
Ge   14.67281000   13.25846000    3.67521000      1.444129    0.18809900   -1.27849100
Ge   13.28608000   15.60251000   12.16058000     -0.437170    0.11486700   -0.39577800
Ge   10.81135000   18.69138000    4.06751000      0.413883    0.44170100   -0.38407800
Ge   12.18428000   19.57557000   16.99249000     -0.400036    0.61549500   -0.22841200
Ge    0.05154000    6.00966000    6.07492000     -0.358356   -0.32772000   -0.54711900
Ge   22.19219000    3.66231000   13.23774000     -0.096034    0.39286900   -0.12868300
Ge   19.75803000    7.91876000    7.00772000      0.009341   -0.12502200    0.53904200
Ge   17.08912000   10.18312000   12.21650000      0.091697    0.26953800    1.47747000
Ge   20.10332000   16.85626000    0.52601000     -1.035091   -0.26439800    0.80187000
Ge   19.64446000   15.89429000   13.72235000     -0.240413   -0.50275800    0.57313900
Ge   19.45519000   20.30317000    5.36055000     -0.477516   -0.03674500   -0.31153100
Ge   21.65664000   21.02913000   13.70633000     -0.478831   -1.01754700   -0.39068900
Ge    2.95997000    2.31511000    2.89744000      1.378978   -0.16826600    0.64130300
Ge    6.17113000    0.53226000   12.78425000     -0.411357   -0.64086400    0.34226000
Ge    3.63116000    8.38009000    3.57421000     -0.486616    0.62597500   -0.04800900
Ge    6.65249000    4.26366000   14.68478000     -0.216940    0.72348200   -0.20869600
Ge    4.54241000   12.37700000    2.08101000     -0.332750    0.32931900   -0.51038400
Ge    3.62409000   10.57179000   12.23383000      0.720989    0.26954900   -0.19573000
Ge    3.52445000    0.54944000    6.67028000     -0.655002   -0.76164100    1.13131500
Ge    7.27589000   19.76902000   12.52804000     -0.063614   -0.32870900    0.59100800
Ge   10.05284000    3.30806000    2.39289000     -0.225741   -0.74939100    1.58323000
Ge    9.02873000    4.40640000   12.05867000      0.461896    0.36042000    0.15098200
Ge   12.31608000    8.62512000    1.33365000      0.078311   -1.82829500    0.20217500
Ge   11.35781000    8.26786000   12.16947000     -3.509444   -0.90174900    0.82510900
Ge    8.42869000   13.63192000    1.91396000     -0.168365    0.07073700   -0.08465900
Ge    7.87982000   12.61991000   10.80132000     -0.019829    0.05883400    0.96049000
Ge   11.85511000   20.97856000    1.47355000     -0.241982    0.49356200    0.12583900
Ge   11.27381000   19.54900000   12.74026000      0.179455   -0.49348000    0.39533100
Ge    0.06084000    0.52371000   16.08103000      2.272594   -2.39897500    0.56088300
Ge   12.53875000    1.74677000   10.94519000      0.670699    0.00109200   -1.31631400
Ge   16.02255000    6.90816000    2.01979000     -0.388288   -0.13367800   -0.30236100
Ge   15.24604000    6.34299000   11.35350000     -0.195469    0.01463300    0.02369600
Ge   18.23928000   11.60791000    1.89031000      0.379986    0.35811100   -0.48466200
Ge   16.61058000   16.96310000    9.54982000      0.123648    0.41043300   -1.25642900
Ge   17.66877000   21.16728000    2.20459000     -0.132038   -1.13883800   -0.45771600
Ge   15.46522000   19.92001000   11.13897000     -0.876116   -0.16718600   -0.78498900
Ge   21.63012000    1.40151000    2.38430000     -0.131966    0.27857100   -0.23745000
Ge    0.11869000    1.40744000   10.43149000     -0.555100   -0.29184200   -0.05490000
Ge    0.62356000    7.80679000    1.98655000     -1.155965    1.13600100   -0.10393500
Ge   21.67837000    9.18126000   13.63401000     -0.632724   -1.13043300   -0.31383100
Ge   20.48125000   12.79337000    0.86677000     -0.217063    0.64969300   -0.91621900
Ge    0.22031000   14.94011000    9.31743000      0.348099    0.34013100   -0.24148300
Ge    2.80666000   20.03764000    4.64098000     -0.148337    0.18992900    0.88774200
Ge   19.70336000   19.40582000   10.79174000      0.999454   -0.46183600   -0.17194500
Se   21.76864000    0.46770000    0.04937000     -0.770129   -0.29015800    0.26468800
Se    1.68100000    1.34632000    8.32671000     -0.473925    0.41085300    0.52301200
Se    2.26347000   10.52367000    2.65476000      0.207635   -0.91492700    0.31014100
Se    0.17714000    6.78963000   12.70461000     -2.382435   -0.34404800   -0.23103000
Se   22.41842000   13.07112000   18.10269000     -0.727527   -0.44425100    0.28730600
Se    2.08372000   12.68005000    9.56260000      0.134482    0.71694300   -0.48482500
Se    2.44361000   17.15994000    5.06158000      0.452023   -0.55501400   -0.03075700
Se    2.32118000   16.38969000   10.64310000     -0.579429   -0.56464700    0.30251000
Se    4.79984000    2.09171000    1.10321000     -0.681315    0.48335600   -0.01878100
Se    6.37996000    4.29688000   11.46967000      0.119468   -0.98376600    1.16209500
Se    6.18748000    6.12146000    2.06203000      0.340965   -0.38007900    0.56513900
Se    8.52064000    7.19680000   12.46584000      0.211630   -0.19496500    0.01109600
Se    7.89067000    9.83946000   18.86702000     -0.252011    0.73294300    0.89180100
Se    5.77148000   11.72591000   13.86350000      0.264216   -0.32218400    0.63834500
Se    5.61133000   20.36797000    2.21502000      0.457185   -0.14590100    0.02141400
Se    8.86090000   18.11053000   11.05760000      0.051050    0.73221500   -0.73198300
Se   12.13270000    1.95738000    0.74537000     -1.672802   -0.61034000   -1.36717100
Se   12.99209000    1.84900000   13.32701000      0.091110    0.37563300    1.04258100
Se   12.37141000    7.35044000   18.26600000     -0.076724   -0.19098400   -0.12064400
Se   10.32407000    9.73192000   10.44643000     -0.900874   -0.47827600   -0.62678500
Se   13.22382000   14.14290000    1.94926000      0.204417   -0.86386800   -0.65640900
Se   12.69014000   10.95265000    7.81863000     -0.082351   -0.79578000   -0.23565700
Se   14.31610000   17.31343000    2.40532000     -0.367594   -0.50637300    0.42688800
Se   12.98894000   17.41747000   10.08296000     -0.379855   -0.52399900    0.12137000
Se   18.78535000    3.91153000    2.97310000      0.193751   -0.45998400    0.12581100
Se   16.16300000    1.55471000   13.44570000      0.815133   -0.07954900    0.03030300
Se   15.64008000    8.22935000   18.07555000      1.071885   -0.74809200    0.53963300
Se   17.76306000    5.26277000   12.36734000     -0.097044   -0.11404600    0.86465300
Se   18.87852000    9.37695000    0.76224000      0.049777   -0.17374900    0.41173800
Se   16.86163000   15.09826000    6.78025000     -0.276807   -1.49340000    0.79895200
Se   20.65755000   20.10704000    0.63170000      0.931159   -0.59459600    0.88309000
Se   16.33808000   19.21888000    7.44233000      0.439267   -1.06041800    1.00351300
Se    1.39465000    1.30829000    1.43884000     -0.705844   -0.31184300    1.34388700
Se    5.83871000    7.62171000    9.93083000      0.408304    0.19269900    0.05131200
Se    6.42266000   10.33882000    1.83132000      0.213770    0.10467800    0.27819700
Se    4.50773000   11.41424000    9.83994000      0.600154   -0.02180600    0.62298800
Se    2.83884000   15.51281000    1.11981000      0.170004   -0.41754900    0.06252000
Se    2.90207000   13.19398000   12.44977000     -0.798085   -0.27528500    0.31914900
Se    3.55942000   21.55418000   18.04120000      2.426825   -0.66400200    0.59251400
Se    5.79881000   20.12013000   10.37228000     -0.549419    1.23440900    1.05809800
Se   11.84539000    4.76844000    2.84493000      1.249001    0.43200500    0.03586300
Se    7.38593000    4.82583000    7.40714000     -0.265995    0.22335400    0.35212000
Se   11.87851000   10.81405000    1.37288000     -0.474814    1.94373300    0.10256000
Se    6.86941000   10.49860000   10.43987000     -0.459897    0.03171200    0.02559000
Se   10.00154000   15.54118000    1.96123000      0.290355    0.44328100   -0.42609300
Se   12.60175000   12.42560000   12.36493000      0.142576    0.46805600    1.01840200
Se   10.40454000   21.57521000   17.95828000     -0.091859   -0.75252300    0.38218500
Se    8.42358000   21.95285000   12.22458000     -0.280013    1.05113100   -0.68879600
Se   14.54500000    5.25567000    0.53121000      0.538452    0.13166900    0.13624500
Se   16.50714000    6.66591000    8.78596000      0.319609   -0.87946400   -0.29273200
Se   15.43535000   10.47120000   18.70129000     -0.398007    0.71983300    0.28245400
Se   15.05379000   12.07427000   12.91543000      0.134380   -0.00495000    0.89657000
Se   18.50117000   14.94573000    2.88129000     -0.450161    0.30263000   -0.11505600
Se   16.49305000   11.08237000   10.03824000     -0.307991    0.85111200   -0.85201000
Se   17.99307000    0.18795000    0.31049000     -0.150348   -0.49462500    0.57150600
Se   15.16185000   21.19754000    6.80441000     -0.944884   -1.52071400   -0.16772800
Se   22.54396000    4.37824000    1.50219000     -0.406668   -0.67101400   -0.34816500
Se   20.88435000    4.10521000   10.76744000      0.594024    0.21399100    0.49587300
Se   21.20874000    5.87714000    0.33076000      0.147264    0.87150800    0.04588600
Se   20.87372000   11.09875000   12.48219000     -0.119920   -0.11645600   -0.46053800
Se   18.89176000   14.65130000   18.33196000      0.337226    0.15989000   -0.29891600
Se   21.50692000   16.52844000   12.19029000     -0.732099   -0.58093600   -0.21350400
Se   21.40155000   22.16553000    4.06466000      0.011437    0.20982200   -0.18093700
Se   17.76132000   20.83044000   11.01278000     -0.460002    1.15783800    0.36110100
Se    3.47557000    5.52775000    9.01032000      1.033581   -0.23565300   -0.38650800
Se   21.89964000    3.23643000   17.61306000     -0.129746   -0.01671700    0.60216000
Se    2.53045000    9.43558000    8.06532000     -0.470574    0.24091900    0.64953000
Se    1.61596000   10.38280000   17.12355000     -0.118614   -0.01113700   -0.01603800
Se    4.20847000   17.74430000    7.93833000      0.165443    1.19860000    0.92447400
Se    0.26046000   17.98777000   15.10611000      0.202710    0.14211900   -0.07459900
Se    0.95014000   18.94435000   12.84701000     -0.573975    0.09518500    0.18416600
Se    1.44660000   20.46777000   17.66192000     -0.664207   -0.02500100   -0.91615800
Se    4.44198000    3.96093000    5.20171000      0.388194    0.31463500   -0.08252900
Se    5.02421000    6.06617000   18.13266000     -1.196455   -0.31431600    0.04154900
Se    4.49214000    9.56317000    5.53599000      1.356910   -0.61059800   -0.05769200
Se    3.26661000    6.71499000   16.32544000      0.822028   -0.23398800   -0.16093700
Se    6.67390000   14.53174000   12.06917000      0.270320   -0.86187700   -1.33796800
Se    6.94523000   16.95953000   17.61108000     -0.553708    0.93830900    0.94315000
Se    9.69749000   18.33239000    6.14351000     -0.672469    0.01728600    1.33953700
Se    5.82878000   19.87750000   17.60620000      1.087691    0.35465000    2.27092500
Se   10.13700000    2.30797000   10.31835000     -0.595092    0.88680400    0.84035300
Se   12.70420000    4.00107000   16.93260000     -0.475723   -0.24057300    0.49250900
Se   13.56467000    6.87449000    7.06360000     -0.516779    0.84894900   -0.28774600
Se   13.87159000   10.77143000   16.76159000      0.210169    0.82060000   -0.29958300
Se   11.42993000   14.12976000    7.68016000     -0.086441    0.82453000    0.13967900
Se   13.97158000   15.62998000   17.17008000     -0.217741    0.30514500   -0.30212700
Se   12.21759000    1.32135000    7.94917000      0.666517   -1.25149200   -0.50307900
Se   14.12094000   21.65032000   18.05735000      0.050615   -0.19457500   -0.01043600
Se   13.75005000    4.31538000   10.35794000      0.595905   -0.85147000    0.06679900
Se   20.79539000    1.84873000   15.85191000     -2.246798    1.58836500   -0.86681300
Se   18.90242000   10.76665000   10.59012000      0.296514   -0.10177900    0.05798200
Se   17.23942000   10.48496000   15.64419000      0.290685    0.83824100   -0.14646000
Se   14.15497000   16.34008000    6.37717000     -0.316209   -0.16570800   -0.43730100
Se   20.44923000   13.54182000   14.49044000     -0.786258    0.22095800   -0.07002000
Se   19.10703000   21.57500000    8.16708000      0.100322   -0.45127000   -0.54016100
Se   18.66013000   18.74789000    2.65299000     -0.188015    1.16994100    0.25019500
Se    5.07988000    1.09507000    8.46339000      0.133676    0.62556700    0.45660100
Se    3.29497000    3.23689000   18.54463000      0.340602   -0.91818200   -0.51807500
Se    9.34695000   10.07062000    6.97788000     -0.383412   -0.80709900   -0.41516100
Se    3.77790000    9.61832000   18.86803000      0.000518    1.06275600   -0.56044500
Se    6.55030000   16.73384000    5.52349000      0.216184    0.44161700   -0.22064800
Se    4.64918000   12.51276000   18.50854000      0.096273   -0.14715100   -1.09415100
Se    1.78842000   20.01587000   10.33538000     -2.303018   -1.90061000    0.45219700
Se    2.97865000   18.40268000    1.51833000     -0.485090    0.13047900    0.52265200
Se    8.04005000   22.44446000    8.01642000      0.283641   -0.47696000    0.20854500
Se    8.48616000    3.55194000    0.72794000     -0.856353   -0.21407100   -0.20471200
Se   10.05118000    5.65755000    9.15873000     -0.363140   -0.93585900   -2.51655100
Se    8.57163000    6.75742000   18.87422000     -0.488794    0.24228700   -1.15976900
Se    7.98370000   12.06663000    5.57053000      0.401030   -0.85443600   -0.19191600
Se    7.40472000   14.66573000   17.47444000      0.142381   -0.85280300   -0.14532200
Se   11.24851000   21.26730000   10.88985000      0.632838    0.38668800   -0.71647200
Se   10.72222000   13.99621000   17.66686000      0.606547   -2.03878700    0.31020000
Se   16.44600000    0.34800000    7.52850000      0.562653    1.50884800    0.91782000
Se   15.94594000    3.35316000    0.32634000     -0.225037   -0.40126400    0.03475500
Se   16.25700000    4.44010000    7.51665000     -0.178584   -0.19032100    0.81675000
Se   14.91615000    6.85756000   16.03987000     -0.467203    0.14343200   -0.79224600
Se   15.69844000    9.06168000    8.96410000      0.148004   -0.29897700    0.27440900
Se   14.50612000   13.32519000   18.68264000     -0.171028    0.56015100    1.32763900
Se   13.18443000   18.61375000    5.60634000     -0.155194    0.04534000    0.21758600
Se   16.99332000   17.75696000   18.86396000      0.826666   -0.14579000   -0.37680900
Se   20.67616000    2.02025000    8.56951000      0.482464    0.21615300   -0.38480300
Se    0.87650000    0.20559000   13.67899000      0.179688    1.00253000    0.53357000
Se   20.12663000    8.03765000    9.73675000     -0.267979   -0.37768000   -0.38830300
Se   22.13937000    7.40540000   16.84471000      0.272446    0.07681200    0.62352300
Se   21.08970000   11.53106000    6.81260000      0.861045   -0.15794700    0.47888300
Se   20.51182000   11.39709000   16.94981000     -0.349452    0.06914100    0.27981300
Se   19.16943000   17.36351000    8.16681000     -0.461904   -1.03677800   -0.05159900
Se   19.91313000   17.32216000   15.80954000      0.057160   -0.62313100   -0.42909200
Se    3.60307000   22.02321000   12.39002000      0.826799    0.44263000    0.93378800
Se    2.59141000    1.76875000   14.97292000      0.267016   -0.34295100   -0.62312800
Se   22.03888000    7.75401000    8.29619000      0.154996   -0.12486600    0.11060700
Se    0.75416000   10.38132000   14.83502000      0.237975    0.15023000    0.20122800
Se    3.80791000   14.65350000    5.73161000     -0.072637    0.36922200   -0.08211700
Se    2.27893000   14.05139000   16.77590000     -0.167562   -0.36900900   -0.11425200
Se    0.14548000   17.07173000    7.82228000     -0.105812    0.02862700    0.29737600
Se    2.53212000   19.96578000   14.31399000      0.602667   -0.40318700    0.25549500
Se    6.72340000    0.58454000    3.15886000      0.336340    0.55716000   -0.45633500
Se    7.28483000   22.21293000    1.07230000      0.227992    0.24173800   -0.20864600
Se    9.04264000    7.61901000    6.71847000      0.587716    0.80778900    0.11062100
Se    4.19868000    3.84000000   15.36966000      0.419807    0.58251600    0.25331300
Se    5.27212000   12.13437000    4.50980000      0.339143   -0.68655600    0.51137200
Se    9.95699000   13.56956000   14.09817000     -0.047454   -0.67813300    0.15586600
Se    8.17359000   18.08165000    3.76551000     -0.427124   -0.74446700    0.20089100
Se    8.05948000   16.79303000   14.47855000     -0.742772    0.30830000   -0.48428700
Se   14.28066000   22.28861000    4.66688000     -0.780643    1.83052200   -0.92420000
Se   13.47826000    0.66505000   16.38619000      0.552283   -0.29418400   -0.06844300
Se   12.70773000   10.20923000    5.04356000     -1.107696   -0.84213700    0.00145900
Se   11.40193000    6.10505000   13.81998000     -0.529841    0.65909600    0.47396900
Se   13.99678000   12.69067000    5.77236000     -0.312597    1.04526800    0.33119100
Se   13.08233000   14.47635000   14.98259000      0.049496   -0.30981000    0.27385600
Se   11.62354000   18.78673000    7.61299000      0.205610   -0.15228800   -0.65738700
Se   11.94996000   18.46655000    1.73466000      0.313233   -0.41530600   -0.66780700
Se   19.38612000    1.92602000    5.31668000      0.663352    0.50125500    0.02049200
Se   18.69643000    0.89303000   16.64270000      0.018824   -0.17127600   -0.19939000
Se   19.81268000    5.38585000    6.74392000     -0.217897   -0.22521800   -0.06375400
Se   18.98625000    5.93625000   16.20695000     -0.128224    0.56734700    0.97010600
Se   19.28028000   11.95363000    4.19061000     -0.243860    0.58971200   -0.40769600
Se   17.29424000   14.78927000   13.35051000      0.852915   -0.04968700   -0.17072700
Se   17.36330000   18.74958000    5.20053000      0.088910   -0.15457100   -0.54441600
Se   17.03227000   19.93297000   15.97395000      0.512732   -0.09849800    0.46428200
Se    2.11133000    7.37384000    5.41712000      0.156952   -0.24648600   -0.15305000
Se    2.14251000    6.54833000   13.73487000      1.524042   -0.11885500    0.74549600
Se    0.94782000   11.82424000    4.59626000      0.845365   -0.41641400    0.00267200
Se    3.70361000   10.88905000   15.40098000     -0.232502   -0.67909800   -0.88216600
Se    5.90165000   13.98596000    7.80688000     -0.101646    0.28563700   -0.26082900
Se    3.15196000   17.26644000   17.52939000     -0.161102    0.94016800    0.35542900
Se    2.29704000   20.02421000    7.28005000     -0.396276    0.32681700   -0.86225300
Se    6.68632000   21.40693000   14.81279000     -0.903241   -0.14222800   -0.40201300
Se    9.17647000    0.59744000    5.37818000      0.263940   -0.13810000    0.10794600
Se    7.03663000    2.22750000   17.69891000      0.184411   -0.48523900    0.13750100
Se   13.42811000   11.71488000    9.99020000      0.238781    0.49783200   -0.24525400
Se   10.63385000   10.29624000   17.26344000     -0.929853   -0.44930000   -1.55221500
Se    8.22576000   13.32351000    8.46608000      0.097599    0.18828600    0.41934000
Se   11.45999000   16.49523000   14.02454000      3.295737    0.79173300    1.59795300
Se   12.05629000   20.95653000    4.37639000     -0.170722   -0.25685600    0.48081000
Se   10.34684000   17.57300000   17.22477000     -0.782839    1.08250500   -0.09392600
Se   10.93686000    4.56666000    6.74943000      0.327498   -0.14978400   -0.27447400
Se   17.79844000    4.21380000   17.19466000     -0.683148   -0.52999400   -0.08522000
Se   16.89318000    8.15909000    4.89568000     -0.195622   -0.62730200    0.17171700
Se   16.09348000    8.18228000   13.23629000      1.201270   -0.41594200   -0.37418600
Se   17.82023000   10.79131000    5.72256000     -1.419373    0.05406500   -1.25044500
Se   14.71831000   17.55623000   15.88941000     -0.544306   -0.02899500    0.34199600
Se   15.26892000    2.19307000    4.69586000      0.492805    0.14973800    0.67457300
Se   18.61993000    2.51859000   13.10109000     -0.218560   -0.12346900    0.21479600
Se    1.06647000    3.42637000    5.45282000     -0.374594   -0.32671100    0.31052500
Se    0.56406000    4.35730000   15.98127000      0.095409    0.51067800   -0.31107300
Se   18.42844000   13.58596000    8.26903000     -0.281027    0.49943600   -0.26089200
Se   22.53241000   13.09284000   13.41143000      0.338406    0.54350600    0.01698300
Se   20.52914000   14.79894000    5.35751000      0.111358    0.23569600    0.62318200
Se   19.77008000   19.38852000   13.31532000      0.136748    0.54388500    0.24110500
Se   20.98777000   19.41041000    7.66567000      0.027562    0.00435600    0.59867100
Se   21.60405000   20.54172000   16.47903000     -0.532030    0.57179200   -0.95615200
Se    4.44895000    0.62909000    4.49823000     -0.415846    0.63163200   -1.25223700
Se    7.13646000    1.90452000   15.11979000     -0.031114   -0.62660300   -0.29445300
Se    2.26125000    6.29891000    0.99342000      0.889308   -0.57995100    0.24808300
Se    4.94460000    7.65561000   12.16274000     -0.060775    0.16641800   -0.72712600
Se    1.57916000   13.58912000    1.71471000      0.079587    0.55554000   -0.07953300
Se    5.17828000   15.34806000   15.29606000     -0.286121   -0.61120900   -0.63819400
Se    5.36294000   17.92314000    2.39629000      0.086387   -0.11798400   -0.54543200
Se    5.18325000   17.66862000   11.96924000      1.497137   -0.23633500    1.45588400
Se   10.14109000    0.87903000    3.12690000      0.160709    0.53288900    0.15217200
Se   10.97799000    1.07095000   16.90721000     -0.611115    0.04815600   -0.26389600
Se   10.49370000    7.19934000    2.31980000     -0.461456   -0.01498800    0.48859100
Se    7.29427000    8.10863000   16.15060000     -0.174792    0.69026000   -1.45792100
Se   10.60926000   11.31967000    4.10062000      0.635678   -0.02782000    0.03035600
Se    9.73384000   11.80896000   12.25818000     -0.353965   -0.65285800    0.00427900
Se    9.32090000   20.49179000    1.95947000     -0.076676   -0.46831900   -0.24751000
Se   15.38156000   17.82476000   12.68935000     -0.087940    0.33560500    0.56788100
Se   13.61072000    3.60880000    6.00515000      0.143344   -0.08560400   -0.23769100
Se   15.98079000    0.96738000   15.98158000      0.031575    0.56233800   -0.51629500
Se   15.85687000    5.99830000    4.40110000      0.508853    0.06403800    0.23423400
Se   13.33789000    8.70660000   11.46529000      4.193609    0.45379600   -1.90573900
Se   16.13978000   11.12621000    2.88932000     -1.207002    0.56006900   -0.08193400
Se   16.43076000   14.35109000   16.26340000      1.155918   -0.81648500    0.35646800
Se   16.07242000   15.46598000    3.97115000     -0.492220   -0.22253800   -0.54614100
Se   14.56968000   21.33109000   12.98487000     -0.120397    0.32236800    0.12911400
Se   22.22402000   21.10667000    6.49325000      1.354096   -0.11292500    0.51719500
Se   19.54730000    0.18408000   13.27171000      0.999690    1.03978300   -0.09884500
Se   21.57720000    7.01804000    3.85774000      0.389060   -0.64227700    0.47504700
Se   19.58689000    8.01566000   14.00268000      0.017941    0.10844700   -0.00889200
Se    0.26677000   13.87579000    5.93910000      0.260842    0.09818800    0.31433600
Se    0.76143000   15.21433000   14.57311000      0.107260   -0.08936000    0.46927100
Se   21.46902000   17.58285000    4.16525000     -0.324122    1.02674900   -0.25339600
Se   21.90491000   21.34542000   10.93607000     -0.553137    0.63555200   -0.22096400
Se    2.63103000    4.68715000    3.49806000      0.338974    0.29190200   -0.06918100
Se    2.12053000    3.10156000   11.87103000      0.278284    0.15801100    0.33144400
Se   21.72959000   11.14019000    1.99262000      0.533735   -0.84482200    0.35010000
Se    1.42772000    9.55474000   11.56778000      0.120523   -0.31440200    0.27913800
Se   22.18898000   16.58104000   18.36191000      1.582521    0.11110500   -0.32992400
Se    3.53301000   16.35952000   13.12419000      0.309167   -1.61282600   -1.65527600
Se    1.58320000   20.58654000    2.50183000     -0.019507    0.04825100   -0.37579100
Se    4.85313000   19.36949000   15.68435000     -0.382688   -0.21388400   -1.70824500
Se    8.42939000    4.41202000    4.38023000      0.826818   -0.32273800   -0.47792700
Se   10.08671000    3.12936000   14.35671000     -0.777770    0.33062500   -0.29235500
Se    5.87739000    6.13186000    4.56379000     -0.531046    0.79125600   -0.00159500
Se    8.40963000   11.30371000   15.99739000      0.198870   -0.07038000   -0.06212000
Se    6.26408000   14.89498000    1.68255000     -0.269820   -0.69783000    1.28820700
Se   10.42306000   14.77225000   11.11610000     -0.195244    1.68550200   -0.28364300
Se    5.31984000   20.92944000    5.87343000      0.484601   -0.54274600    0.77879700
Se   10.04818000   20.35510000   14.69227000      0.529087    0.06929600    0.16482200
Se   13.37272000    2.62173000    2.49389000      1.066292    1.45255600    0.69729500
Se   11.27319000    5.73068000   11.02440000      1.063762   -0.40912000    1.63700700
Se   14.07889000    8.41288000    2.96574000     -0.066994   -0.42909500   -0.27357100
Se   11.22534000    9.63892000   14.13042000     -0.692430   -0.70325300    1.06529700
Se    8.98382000   14.06832000    4.38688000     -0.522004    0.16714000    0.00772600
Se   14.69430000   13.97914000    9.76634000     -0.132979    0.09791200   -0.22701000
Se   15.21573000   20.43492000    1.89461000      0.458048    0.27773300    0.84127600
Se   13.73103000   19.37642000   14.14708000     -0.509658    0.26206300   -0.38098600
Se   18.65220000    5.32164000    1.05514000     -0.215922    1.74265400    0.49110400
Se   14.85379000    5.15641000   14.20237000     -0.014130   -0.20552700   -0.36562400
Se   19.08245000    8.14279000    2.89191000     -0.123168    0.45687500   -0.02841200
Se   20.63874000   14.55271000   10.90465000     -0.068093    0.95881600    0.38961100
Se   20.93830000   14.72174000    2.22775000      0.006219    0.65356900    0.08936900
Se   17.72445000   17.68470000   11.73930000      0.689773    0.02069600   -0.25953400
Se   17.94632000   22.21223000    4.22251000     -0.501409    0.14899000    0.69381800
Se   16.62421000    1.19486000   10.69900000     -0.693765   -0.08850900   -0.35860100
