384
22.54784000 22.54784000 18.93360000
Ge    6.07959000    5.16911000    9.36763000     -0.674826    0.34185700   -0.32100100
Ge    4.45869000    7.65674000    1.18693000     -0.193178    0.08411400    0.24500000
Ge    3.79720000   11.46766000    6.95946000     -0.488333    0.40928600    0.31934600
Ge    5.74922000   10.63176000   16.78823000      0.839316    0.20241700    1.00285300
Ge    4.18422000   14.09720000   10.11722000      0.490128   -0.04331200    0.46600800
Ge    8.87340000   17.62052000    0.64004000      0.069549   -0.03753500   -0.02489100
Ge    6.23169000   19.29113000    8.29782000      0.674419   -1.03807200   -2.60790400
Ge    4.87267000    1.36088000   16.47724000     -0.061621    0.16234700   -0.21157300
Ge    8.67626000    7.49165000    9.93738000     -0.608480    1.54178100    0.48849700
Ge   10.59550000    5.36939000    0.03211000      0.916500    0.14221900    0.15539700
Ge   12.35209000    8.49661000    8.85245000     -0.351018    0.32561300    0.58884200
Ge    9.73504000   11.61815000    0.12365000     -0.541384    0.22689200    0.60142100
Ge   10.04399000   16.70095000    9.13283000      0.425589   -0.59488800    0.60288400
Ge   11.63113000   16.03515000   18.50558000      0.776838    0.02028400    1.46999800
Ge    9.35438000    0.01988000    9.94838000     -0.121104   -0.52494800    0.59765900
Ge   14.25947000    0.22155000    1.46613000     -0.040649    0.14134900   -0.71545200
Ge   18.77240000    5.27292000   10.14815000     -0.114080    0.34355500   -0.41255300
Ge   18.04620000    8.50006000   16.74535000     -0.083927    0.22538800    0.72570500
Ge   17.96030000   15.31824000   10.92572000      0.132921   -1.41951500    0.06028800
Ge   17.79700000   12.07815000   17.73429000     -0.204227   -0.23479100   -0.69744100
Ge   13.28961000   15.52135000    8.51742000     -0.451988   -0.23211400    0.43341300
Ge   16.64457000   15.35754000    0.88404000      0.399182   -0.14241300    0.16185100
Ge   16.24123000    3.46793000   10.06947000     -0.311011    1.05842500   -0.56432900
Ge   19.16433000    3.15084000    0.31694000     -0.107829   -1.32089300   -0.44059600
Ge    1.72041000    4.17601000    9.75322000     -0.827230   -0.90169900   -0.06931800
Ge   21.23397000    3.50716000    4.24769000     -0.441568    0.07997400   -0.32508500
Ge    0.60441000   10.71437000    9.57011000     -0.256402   -0.44381800   -0.59277700
Ge   21.76197000    9.65416000   18.32509000     -0.428842   -0.10343400    0.20569800
Ge   20.66610000   15.14788000    7.84383000     -0.866712    0.47584000   -0.06290700
Ge    4.45149000   15.13372000   17.80235000     -0.328320   -0.16219100    0.07913000
Ge   19.28832000    0.68836000   10.30803000     -0.075477   -0.94759000    0.30986500
Ge   21.75217000   19.94604000    3.04921000      0.154045   -1.10679500   -0.74063300
Ge    4.18171000    7.05279000    6.89064000     -0.080713    0.54148500   -0.84051000
Ge    1.89219000    7.95572000   17.89330000     -0.078135    0.12312900   -0.38659100
Ge   20.82513000   10.05150000    4.36675000      0.359776   -0.26842500   -0.31802900
Ge    3.60815000   13.24436000   14.76843000      0.974869    0.78777800    0.48627500
Ge    4.60560000   18.28565000    4.75612000      0.835201   -1.25468300    0.41866000
Ge    0.76176000   18.66698000    0.25430000     -0.416640   -0.04160600    0.54549000
Ge    3.63304000   18.44100000   10.44634000     -0.465927    0.00270300   -2.30506000
Ge    2.11655000    0.79615000   18.07111000     -0.989574    1.67687000   -1.03666000
Ge   10.01172000    2.22329000    7.38045000     -0.362954    0.89472600   -0.03686800
Ge    6.97585000    5.79736000   16.87526000      1.278652    0.02037100   -0.11050800
Ge    8.23072000   10.22322000    3.75355000      0.549476   -0.63689500    0.48481200
Ge    9.74322000    7.46570000   16.47769000      0.348182    0.61259200    0.47164500
Ge    7.39216000   15.39017000    9.75899000     -0.084107    0.66918500   -0.06454200
Ge    9.40046000   15.11854000   16.12973000     -0.300257    0.03379200   -0.94871900
Ge   10.96812000   21.64006000    7.00441000     -0.301622    0.34154700   -0.32556300
Ge   10.63890000    0.85344000   13.53851000      0.135994   -0.90128800    0.27032800
Ge   11.85920000    7.60330000    5.27123000      0.005081    0.09536500   -0.25252500
Ge   15.35255000    3.67101000   16.34043000      0.067801   -0.31655800    0.50664800
Ge   14.72371000    9.13414000    6.74374000     -0.107269    0.05268200   -1.70381600
Ge   14.81545000   12.88607000   15.42334000      0.058704   -0.97924100   -0.29962500
Ge   12.07716000   14.61228000    5.25619000      0.864507   -0.29732900    0.38661300
Ge   14.64888000   18.64324000    0.31341000      0.016491   -0.57670300   -0.75089400
Ge   14.42705000   22.38391000    9.04518000      0.239624    0.27014200    0.29559900
Ge   17.49840000   21.55323000   13.72725000     -0.655077   -0.68087400   -0.04345100
Ge   21.96947000    4.43026000    8.29904000     -0.557076   -0.42960500    0.48259600
Ge   19.90102000    5.43946000   14.12462000      0.537427   -0.10980100   -1.93580200
Ge   19.01624000   10.79521000    7.72779000      0.185730    0.18294700    1.07747000
Ge   21.19882000   15.03127000   16.63059000     -0.452936   -0.23615900   -0.26524900
Ge   18.51538000   16.41453000    5.64955000     -0.037146    1.09463600    0.45283200
Ge   17.22230000   17.37090000   16.23197000      0.049458    0.45132400    0.46240800
Ge   22.07928000    1.35822000    6.60860000      0.358383   -0.13722400    0.10674100
Ge   18.94433000   20.94779000   17.72683000     -0.170141   -0.06501100   -0.91692000
Ge    6.38756000    2.57177000    6.98922000     -0.151317   -0.73345900   -0.90046100
Ge    4.67365000    2.83111000   13.05363000     -0.871131   -0.21977100   -0.28278500
Ge    0.65858000    9.75631000    6.43744000     -0.749154   -0.18171500   -0.84011900
Ge    2.42361000    7.08759000   11.20824000      0.192512    0.54126000    0.47280900
Ge    0.54193000   15.65799000    4.15598000      0.600964    0.22499800   -0.69194900
Ge    2.72021000   17.07832000   15.17239000     -0.754390    1.24266400    1.15943400
Ge    3.32869000   21.71357000   10.06080000      1.289674    1.27853500   -0.74080300
Ge    7.95196000   18.95096000   16.13202000      0.450496   -0.04385600   -0.42260900
Ge    6.67958000    3.56865000    2.59393000      0.068669   -0.22209700    0.15044800
Ge    9.37703000    3.24561000   16.71900000     -0.232669    0.12937600    1.27761900
Ge    8.48688000    7.15554000    4.26836000     -0.303703   -0.03018600   -0.11969000
Ge    7.59407000    9.31930000   13.51019000     -0.171500    0.40071500    0.28030600
Ge    6.09354000   14.44902000    4.55760000     -0.452823    0.73795700   -0.92623600
Ge   12.16970000   11.84632000   14.86122000     -1.232683    0.55756300   -0.26825300
Ge    7.43218000   20.52287000    4.34534000     -0.235642    0.52583600   -0.53557800
Ge    9.73566000   16.72704000   12.72066000     -1.306188   -0.93308500   -1.01491200
Ge   12.25711000    1.90688000    4.57425000      0.366999   -0.55985700    0.45889200
Ge   12.43134000    4.07403000   14.60455000      0.907715    0.62481500   -0.76046700
Ge   17.86592000    3.89645000    5.42231000     -0.379108    0.65897100    0.36540700
Ge   14.23638000    9.28547000   14.39915000     -0.408999    0.00965800    0.42063300
Ge   14.70204000   13.26759000    3.62094000      1.383792    0.07964000   -0.34462700
Ge   13.27356000   15.58772000   12.09152000     -0.426301    0.12339200   -0.29596200
Ge   10.80219000   18.67272000    4.11008000      0.368366    0.42574600   -0.29780600
Ge   12.17918000   19.54664000   17.02408000     -0.381593    0.73552300   -0.31443800
Ge    0.07945000    6.08409000    6.11112000     -0.456214   -0.58906700   -0.67646900
Ge   22.17863000    3.68587000   13.24928000     -0.083616    0.47023800   -0.06062300
Ge   19.81306000    7.94846000    7.02538000     -0.313956   -0.30997000    0.36913000
Ge   17.08268000   10.15395000   12.19887000      0.002285    0.51669100    1.36739900
Ge   20.12207000   16.81927000    0.55696000     -0.537837   -0.36236300    0.41857800
Ge   19.67841000   15.84234000   13.73387000     -0.349889   -0.23598600    0.55097600
Ge   19.48111000   20.34894000    5.30976000     -0.795599   -0.15195400   -0.18003200
Ge   21.65980000   20.98113000   13.71714000     -0.382021   -1.01723700   -0.37300100
Ge    2.95553000    2.27318000    2.92449000      1.135494   -0.30766200    0.53818700
Ge    6.14258000    0.51523000   12.73718000     -0.454603   -0.39907900    0.31129700
Ge    3.68144000    8.39225000    3.58159000     -0.668500    0.60440700   -0.24382400
Ge    6.68768000    4.27891000   14.67616000     -0.292806    0.21713800   -0.10309600
Ge    4.53431000   12.42360000    2.03510000     -0.146570    0.23909000   -0.19935700
Ge    3.63750000   10.53915000   12.23274000      0.716810    0.33321400    0.04333700
Ge    3.52595000    0.51673000    6.70075000     -0.509280   -0.74967800    0.86703000
Ge    7.24261000   19.79030000   12.48564000      0.186411   -0.37145300    0.83021800
Ge    9.96761000    3.29684000    2.40448000      0.536669   -0.31932700    2.04795100
Ge    9.06142000    4.39474000   12.02806000      0.358672    0.44489800    0.24197600
Ge   12.28467000    8.60698000    1.39786000      0.398540   -1.65458400   -0.11804000
Ge   11.31446000    8.34283000   12.17665000     -2.204610   -0.83633000    0.32626000
Ge    8.43987000   13.59498000    1.94695000      0.004519    0.04772800   -0.23879900
Ge    7.87473000   12.60243000   10.82495000     -0.295572    0.62426100    0.49271700
Ge   11.86088000   20.98463000    1.52919000     -0.401178    0.48496800   -0.01632200
Ge   11.30153000   19.54650000   12.67141000     -0.020354   -0.46124200    0.86451200
Ge    0.08548000    0.46721000   16.03085000      1.248318   -1.42766600    0.59321300
Ge   12.48549000    1.72350000   10.94135000      1.177150   -0.14911900   -0.82817900
Ge   16.00353000    6.94709000    1.99226000     -0.284674   -0.28183300   -0.05710300
Ge   15.25667000    6.31568000   11.41967000     -0.060515    0.04194900   -0.05683400
Ge   18.17718000   11.63328000    1.85199000      0.959836    0.49402300   -0.35179800
Ge   16.58778000   16.96456000    9.51183000      0.187558    0.25995700   -1.37180600
Ge   17.60044000   21.15398000    2.17501000      0.205646   -0.86148700    0.15028800
Ge   15.42298000   19.91544000   11.11713000     -0.314592   -0.15236200   -0.87209200
Ge   21.61673000    1.36854000    2.36016000     -0.322789    0.19166900   -0.25299200
Ge    0.16133000    1.37141000   10.44807000     -0.557458   -0.28923900   -0.10219700
Ge    0.52596000    7.78334000    1.96526000     -0.908340    0.85864000   -0.24351000
Ge   21.64340000    9.19441000   13.65979000     -0.196138   -1.45738800   -0.00739900
Ge   20.49316000   12.80678000    0.85280000     -0.058522    0.70690700   -0.75660200
Ge    0.20049000   14.95633000    9.34492000      0.575012    0.42781200   -0.38094400
Ge    2.92260000   20.05862000    4.65430000     -0.658916    0.74137400    0.61076800
Ge   19.74839000   19.41549000   10.84271000      0.918467   -0.36604000   -0.59406800
Se   21.75007000    0.47605000   18.92567000     -0.806359   -0.28642700    0.34325700
Se    1.64889000    1.31593000    8.31149000     -0.371114    0.32167100    0.48595000
Se    2.22734000   10.58147000    2.61096000      0.366350   -0.96916400    0.34727900
Se    0.14534000    6.77673000   12.69647000     -0.910822   -0.44274200    0.38313200
Se   22.44834000   13.09579000   18.09317000     -0.852690   -0.47806900    0.38072700
Se    2.07995000   12.72964000    9.61156000     -0.332630    0.36819600   -0.67665400
Se    2.41849000   17.17481000    5.04697000      0.189419   -0.45624900    0.06487400
Se    2.32463000   16.40831000   10.64633000     -0.610513   -0.80129100    0.22977000
Se    4.74252000    2.09667000    1.12769000     -0.435982    0.45902700   -0.13024200
Se    6.41474000    4.23920000   11.47010000      0.028807   -0.68352800    0.61411100
Se    6.20960000    6.05285000    2.08698000      0.227142    0.04041500    0.37492400
Se    8.52955000    7.15892000   12.46128000      0.198215   -0.23964200   -0.05881600
Se    7.88223000    9.84727000   18.87885000     -0.308408    0.61722700    0.92280400
Se    5.78011000   11.68516000   13.84024000      0.080960   -0.32558800    0.67157000
Se    5.61566000   20.32416000    2.22767000      0.492000    0.54025500    0.02920400
Se    8.87752000   18.10942000   11.05598000      0.086083    0.83461100   -0.69332500
Se   12.08570000    1.91014000    0.74673000     -1.397813   -0.42144300   -1.09412000
Se   13.02842000    1.87793000   13.43963000      0.020697    0.21217500    0.39821000
Se   12.33281000    7.29809000   18.28860000      0.071427    0.09437200   -0.06121100
Se   10.33551000    9.75740000   10.42593000     -0.980132   -0.46072600   -0.57587700
Se   13.27529000   14.22957000    1.96109000     -0.007681   -0.87807000   -0.87699500
Se   12.69251000   10.93666000    7.81450000     -0.144017   -0.81040200   -0.32844000
Se   14.32566000   17.33561000    2.41121000     -0.355875   -0.33485100    0.20602900
Se   13.01855000   17.40170000   10.08458000     -0.419685   -0.58008100   -0.00883000
Se   18.76681000    3.95495000    2.92331000      0.139120   -0.58394500    0.38920300
Se   16.13001000    1.56619000   13.46874000      0.961735   -0.10746100   -0.00453700
Se   15.62298000    8.26916000   18.09817000      0.942535   -0.81818800    0.48133100
Se   17.74116000    5.31037000   12.40521000      0.248931   -0.24300700    0.28107900
Se   18.94317000    9.38334000    0.76152000     -0.105772   -0.13118000    0.34000200
Se   16.80371000   15.10077000    6.78554000     -0.063037   -1.30237200    0.60188200
Se   20.63532000   20.14540000    0.66438000      0.996992   -0.54751500    0.82663600
Se   16.39895000   19.21491000    7.42325000      0.366646   -1.05156800    1.13745000
Se    1.39047000    1.22170000    1.47843000     -0.499098   -0.18211500    1.22270200
Se    5.92096000    7.61359000    9.87798000      0.162259    0.31922900    0.40114800
Se    6.45051000   10.31905000    1.89810000      0.063013    0.27537000   -0.04333100
Se    4.47903000   11.33558000    9.84772000      0.775373    0.15252000    0.42386800
Se    2.86392000   15.48573000    1.13891000      0.069158   -0.47963500    0.14063900
Se    2.91611000   13.21564000   12.46259000     -0.875812   -0.43361500   -0.07078200
Se    3.57437000   21.54013000   17.98927000      2.120520   -0.36063000    0.65863600
Se    5.81632000   20.14179000   10.37745000     -0.696395    1.34181500    0.91061500
Se   11.84571000    4.76123000    2.90130000      0.792332    0.02961700   -0.24219900
Se    7.42442000    4.77582000    7.40867000     -0.189322    0.23342300    0.42303200
Se   11.83931000   10.81027000    1.38580000     -0.214168    1.78602700    0.14821100
Se    6.88167000   10.50140000   10.49589000     -0.678965   -0.20142700   -0.16914200
Se   10.00513000   15.53710000    1.92262000      0.090102    0.42736600   -0.29133200
Se   12.62995000   12.41807000   12.30747000     -0.157774    0.57706600    1.19813800
Se   10.35710000   21.57694000   17.95554000      0.003554   -0.45615700    0.35798100
Se    8.39059000   22.00073000   12.21854000     -0.102656    0.74890000   -0.72931100
Se   14.56727000    5.31467000    0.51788000      0.536143   -0.32628300    0.00644800
Se   16.46115000    6.68711000    8.79128000      0.394765   -0.99937300   -0.22584200
Se   15.38416000   10.47779000   18.77002000     -0.256789    0.78679900    0.17512400
Se   14.98813000   12.14623000   12.95989000      0.566623   -0.25461100    0.61231200
Se   18.57862000   14.89869000    2.90292000     -0.746332    0.49400500   -0.28194600
Se   16.50427000   11.07865000    9.99126000     -0.390573    1.12195000   -0.48567800
Se   17.96744000    0.18422000    0.25662000     -0.281247   -0.29504400    0.92167800
Se   15.16239000   21.18360000    6.74173000     -0.486214   -1.37885800    0.33910100
Se    0.03921000    4.35545000    1.46971000     -0.593242   -0.61093400   -0.41503700
Se   20.93202000    4.13701000   10.77457000      0.424614    0.20298500    0.37024800
Se   21.19740000    5.87441000    0.31682000      0.473609    0.82209900    0.12923100
Se   20.90300000   11.09933000   12.57111000     -0.452577    0.16501200   -0.84233800
Se   18.88592000   14.64239000   18.32967000      0.475763    0.13604900   -0.20595600
Se   21.51229000   16.49533000   12.15274000     -0.729613   -0.51893900   -0.00922000
Se   21.37483000   22.08833000    4.04815000     -0.010777    0.76620700   -0.01925000
Se   17.80390000   20.84263000   11.04076000     -0.958404    1.04133600    0.24374600
Se    3.48635000    5.53264000    8.99835000      1.033489   -0.19022600   -0.40259100
Se   21.90379000    3.20339000   17.69197000      0.032749    0.04501300   -0.01201100
Se    2.48183000    9.44181000    8.06563000     -0.228858    0.39126300    0.77131000
Se    1.55119000   10.46471000   17.12745000      0.125909   -0.37697600    0.07191200
Se    4.16937000   17.78358000    7.91495000      0.092490    1.02066200    0.94595500
Se    0.22242000   18.01923000   15.09860000      0.179732    0.08972600    0.01681600
Se    0.93114000   18.96709000   12.84450000     -0.623645    0.02519300    0.14291200
Se    1.47984000   20.43796000   17.69726000     -0.678996    0.13859400   -1.04623800
Se    4.38166000    4.00638000    5.22542000      0.340812    0.35233200    0.07948400
Se    5.02452000    6.07892000   18.18682000     -1.029610   -0.41200700   -0.30104000
Se    4.49974000    9.53872000    5.53146000      1.383232   -0.21051900    0.28459300
Se    3.27196000    6.68015000   16.32082000      0.504426    0.27372000    0.34688100
Se    6.66846000   14.49826000   12.11531000      0.359332   -0.78696700   -1.47521100
Se    6.92488000   16.98345000   17.64532000     -0.336128    0.33147500    0.87705600
Se    9.63180000   18.33266000    6.16623000     -0.256554    0.18827700    1.36564200
Se    5.87355000   19.82313000   17.63030000      1.011478    0.42730100    2.08226800
Se   10.15386000    2.26407000   10.33533000     -0.947565    1.13777600    0.75558400
Se   12.67721000    3.97713000   16.91706000     -0.395673   -0.08607800    0.68490100
Se   13.52208000    6.93471000    7.11225000     -0.181949    0.27235100   -0.28236700
Se   13.90031000   10.74175000   16.77701000      0.124255    0.92922900   -0.36749600
Se   11.45387000   14.09940000    7.63183000     -0.206985    0.72595700    0.56045300
Se   13.94291000   15.66174000   17.19584000     -0.193256    0.03655300   -0.18711900
Se   12.24434000    1.32909000    7.94524000      0.621607   -1.27841500   -0.45309400
Se   14.08516000   21.65074000   18.11957000      0.039737    0.35870600   -0.50792500
Se   13.76086000    4.30908000   10.35318000      0.489660   -0.87113900    0.10476400
Se   20.77358000    1.92004000   15.82975000     -0.906428    0.91009000   -0.56093400
Se   18.85242000   10.80715000   10.55129000      0.540657   -0.17076600    0.02759700
Se   17.24775000   10.47911000   15.60817000      0.176864    0.91995200   -0.13975800
Se   14.08038000   16.33069000    6.35850000      0.014101   -0.24697300   -0.60884900
Se   20.41364000   13.54041000   14.49224000     -0.358813    0.01881100   -0.21309700
Se   19.10155000   21.55297000    8.17871000      0.131049   -0.32551800   -0.41346000
Se   18.67448000   18.67647000    2.61937000     -0.224218    1.35156600    0.27886200
Se    5.02774000    1.11316000    8.52987000      0.360661    0.83264500    0.15540400
Se    3.28923000    3.26160000   18.53644000      0.194552   -0.86114700   -0.43220300
Se    9.42095000   10.05198000    6.96178000     -0.445488   -0.84240400   -0.43168500
Se    3.78979000    9.65413000   18.92152000      0.027280    0.57103600   -0.42922800
Se    6.55504000   16.68284000    5.47137000      0.216770    0.75907500   -0.01127400
Se    4.64862000   12.55721000   18.47740000      0.083580   -0.26725800   -1.08450700
Se    1.75243000   20.00456000   10.33167000     -1.648140   -1.20881900    0.39932300
Se    2.99430000   18.35876000    1.52944000     -0.672068    0.14704000    0.41108200
Se    8.04149000   22.45448000    7.97013000      0.255026   -0.39480300    0.33646200
Se    8.48626000    3.55354000    0.71494000     -1.199562   -0.15780600   -0.59159900
Se   10.09838000    5.63408000    9.20769000     -2.043763   -1.05314300   -4.78850200
Se    8.55476000    6.78439000   18.78804000     -0.264710   -0.05498600   -1.06451600
Se    7.97956000   12.03489000    5.52001000      0.371080   -0.73503300   -0.04356600
Se    7.38543000   14.62765000   17.43533000      0.220347   -0.34190000   -0.17234600
Se   11.24755000   21.29218000   10.88038000      0.750234    0.31857600   -0.78114000
Se   10.74734000   13.97039000   17.72134000      0.592580   -1.49500600    0.30357100
Se   16.45847000    0.32390000    7.58442000      0.248344    1.12600700    0.63107600
Se   15.92763000    3.30346000    0.27272000     -0.341613   -0.05368900    0.06868200
Se   16.26257000    4.37197000    7.52396000     -0.223404   -0.06651200    0.85770600
Se   14.90036000    6.80052000   15.98962000     -0.426704    0.47455600   -0.51370500
Se   15.70076000    9.07899000    8.91824000      0.369917   -0.58659900    0.89308600
Se   14.52331000   13.39289000   18.74991000     -0.116938    0.50287300    1.22630200
Se   13.20717000   18.59534000    5.59331000     -0.449669    0.14192500    0.30236600
Se   17.08045000   17.72510000   18.85864000      0.191911   -0.00100800   -0.41868400
Se   20.70775000    1.94670000    8.57299000      0.618921    0.72655200   -0.32380900
Se    0.87069000    0.15691000   13.66827000      0.219081    1.11460600    0.39693900
Se   20.09043000    8.04023000    9.78829000     -0.071808   -0.37378500   -0.50903500
Se   22.15647000    7.33092000   16.87868000      0.205454    0.14412100    0.48654000
Se   21.07926000   11.54383000    6.86252000      1.012144   -0.18095000    0.42350400
Se   20.50414000   11.42799000   16.93142000     -0.191146   -0.08515500    0.40476400
Se   19.15230000   17.35655000    8.20364000     -0.452209   -1.09621000   -0.11325400
Se   19.90285000   17.36187000   15.77304000      0.012221   -0.74700800   -0.38935000
Se    3.62290000   22.02658000   12.40246000      0.697524    0.27479300    0.64082600
Se    2.60432000    1.81556000   14.94714000      0.111471   -0.58794600   -0.58953400
Se   22.02073000    7.74690000    8.28854000      0.241473   -0.02798300    0.47839600
Se    0.73544000   10.38908000   14.85856000      0.307843    0.14437900    0.19381000
Se    3.83997000   14.69598000    5.80974000     -0.055127    0.26404400   -0.02599200
Se    2.32007000   14.03972000   16.78898000     -0.211433   -0.33025600   -0.28984600
Se    0.12890000   17.11220000    7.79250000     -0.179119   -0.12103100    0.33068400
Se    2.53978000   19.97004000   14.26067000      0.626982   -0.45839600    0.34471700
Se    6.71625000    0.66381000    3.15946000      0.385145   -0.03356500   -0.99455900
Se    7.26395000   22.19474000    1.01193000      0.289753    0.52270300    0.27631200
Se    9.06429000    7.58725000    6.72812000      0.674952    0.85228800    0.05726200
Se    4.15088000    3.80112000   15.39282000      0.756889    0.85329300    0.21462600
Se    5.28244000   12.12946000    4.49611000      0.538438   -0.34088000    0.53035800
Se    9.91892000   13.55772000   14.11007000     -0.014630   -0.60537800    0.15475300
Se    8.12267000   18.07266000    3.77546000     -0.389426   -0.68721000    0.19598600
Se    8.13231000   16.82031000   14.53791000     -0.860925    0.17557900   -0.71292200
Se   14.27373000   22.24085000    4.75389000     -0.858022    2.19990400   -1.43577500
Se   13.48656000    0.75298000   16.37281000      0.633363   -0.79819600    0.45747700
Se   12.73164000   10.19657000    5.08036000     -1.038464   -0.78448500   -0.03772500
Se   11.35942000    6.06409000   13.77545000     -0.372398    0.52461800    0.52207600
Se   13.97881000   12.69612000    5.77210000     -0.071032    1.21411900   -0.26038300
Se   13.03187000   14.47126000   14.98137000      0.292400   -0.47946100    0.32711300
Se   11.63634000   18.79261000    7.63487000     -0.004178   -0.13281200   -0.82172300
Se   11.93148000   18.47349000    1.73343000      0.408705   -0.36192300   -0.69893400
Se   19.38378000    1.87950000    5.41177000      0.727331    0.46788300   -0.07715200
Se   18.74438000    0.91099000   16.68076000      0.137613   -0.09351600   -0.25786000
Se   19.83361000    5.33882000    6.77312000     -0.228860    0.00684600   -0.10324000
Se   18.98511000    5.91035000   16.17468000     -0.101134    0.61931800    0.86339700
Se   19.26342000   11.98902000    4.22781000     -0.181451    0.02518200   -0.57006200
Se   17.28448000   14.80155000   13.37625000      0.937845   -0.04024300   -0.25055100
Se   17.34708000   18.73508000    5.21223000      0.262145   -0.12830800   -0.59371800
Se   17.00172000   19.92860000   16.00262000      0.470602    0.07945200    0.41369500
Se    2.10701000    7.41543000    5.38626000      0.250007   -0.34141400   -0.12593800
Se    2.20961000    6.53784000   13.76706000      0.276598   -0.00243200    0.09067000
Se    0.95415000   11.86291000    4.57631000      0.728127   -0.61356300    0.04394000
Se    3.69239000   10.85817000   15.36392000      0.189734   -0.30751900   -0.76677900
Se    5.93976000   14.01024000    7.80753000     -0.482897    0.38411600   -0.31846400
Se    3.19384000   17.32063000   17.53079000     -0.236977    0.93724000    0.13652200
Se    2.30424000   20.06173000    7.28551000     -0.262804    0.33560000   -0.86527300
Se    6.62931000   21.53236000   14.76311000     -0.834785   -0.62727400   -0.18065500
Se    9.10760000    0.58413000    5.41901000      0.585308   -0.03330400    0.01056200
Se    7.01594000    2.19566000   17.72269000      0.313688   -0.39784900   -0.00774300
Se   13.38983000   11.64761000   10.00582000      0.535388    0.42714900   -0.35032300
Se   10.61914000   10.26864000   17.29713000     -0.796214   -0.41390300   -1.64708800
Se    8.19246000   13.37273000    8.43083000      0.547669   -0.26855000    0.75297000
Se   11.47556000   16.50245000   14.06244000      2.485019    0.95692600    0.77267500
Se   12.09758000   20.99192000    4.36821000     -0.430952   -0.47123500    0.55765500
Se   10.34679000   17.61105000   17.14749000     -0.602981    0.62605300    0.36081100
Se   11.00359000    4.56396000    6.72412000      0.221654   -0.20945300   -0.17509300
Se   17.73988000    4.23299000   17.18513000     -0.416781   -0.41050100    0.16261400
Se   16.92765000    8.18962000    4.91136000     -0.407232   -0.95793200    0.18561800
Se   16.09069000    8.17554000   13.23954000      1.182949   -0.41659600   -0.37982400
Se   17.79170000   10.80670000    5.71730000     -1.105610   -0.02180600   -0.89000700
Se   14.64921000   17.55009000   15.95559000     -0.334541    0.29817800    0.08687400
Se   15.24304000    2.22125000    4.73354000      0.606804    0.14175200    0.42703500
Se   18.65956000    2.50653000   13.09855000     -0.329187    0.01267400    0.12749400
Se    1.06657000    3.39892000    5.50866000     -0.601528   -0.35852200    0.34735600
Se    0.62076000    4.35273000   15.96694000     -0.490453    0.11955400    0.10348300
Se   18.38977000   13.57277000    8.24822000     -0.225792    0.49767800   -0.23615000
Se   22.53930000   13.04620000   13.39806000      0.139122    0.79179000    0.15116200
Se   20.48083000   14.81711000    5.31740000      0.206151    0.20231300    0.76897100
Se   19.71749000   19.41486000   13.30168000      0.145073    0.44423800    0.75639200
Se   21.08197000   19.44109000    7.69068000     -0.470062   -0.65461500    1.06146100
Se   21.59729000   20.50242000   16.49743000     -0.495389    0.54431200   -1.09284400
Se    4.45841000    0.67007000    4.46976000     -0.430795    0.61726100   -0.84675100
Se    7.14207000    1.85571000   15.10252000     -0.153679   -0.12114800   -0.19787600
Se    2.27036000    6.29886000    0.97794000      0.637616   -0.40807700    0.47971100
Se    4.98120000    7.65116000   12.15356000     -0.093177    0.18787500   -0.90931300
Se    1.52533000   13.57624000    1.74518000      0.218426    0.66541600   -0.20132200
Se    5.20469000   15.42776000   15.28489000     -0.316448   -0.64849400   -0.67839100
Se    5.35489000   17.97137000    2.36212000      0.164256   -0.71302800   -0.34808100
Se    5.15654000   17.70712000   12.00438000      1.386718    0.14472600    0.98965500
Se   10.13736000    0.90747000    3.14317000     -0.055914    0.41333400    0.18019400
Se   10.95121000    1.10074000   16.89778000     -0.434311   -0.36488800   -0.15665900
Se   10.51219000    7.21571000    2.27678000     -0.936874   -0.23257200    0.72815800
Se    7.30173000    8.12297000   16.09602000     -0.262273    0.51257600   -1.32547500
Se   10.64975000   11.36446000    4.11393000      0.398090   -0.24852200    0.04656000
Se    9.68630000   11.81787000   12.20997000      0.086505   -0.73394800    0.34557200
Se    9.28105000   20.50153000    1.92460000     -0.007837   -0.47253400   -0.15177900
Se   15.45655000   17.82173000   12.64237000     -0.389535    0.22660800    0.81184600
Se   13.59061000    3.61161000    5.98892000      0.138983   -0.05116000   -0.09425400
Se   16.00203000    0.98146000   15.97030000     -0.190104    0.45368400   -0.44021800
Se   15.86839000    5.92021000    4.40893000      0.671541    0.71976900    0.19449700
Se   13.37485000    8.71814000   11.45106000      2.876218    0.05520800   -1.36852100
Se   16.13920000   11.12339000    2.89498000     -1.439729    0.43882100    0.05231100
Se   16.47414000   14.28783000   16.26219000      1.193646   -0.54024600    0.48452800
Se   16.08929000   15.46735000    3.95540000     -0.475609   -0.30926300   -0.46627800
Se   14.59005000   21.29235000   12.97292000     -0.153111    0.41131900    0.24393100
Se   22.21622000   21.05998000    6.53892000      1.729900    0.40779500    0.05002100
Se   19.59073000    0.23802000   13.29390000      0.879911    0.81806100   -0.08770700
Se   21.53873000    6.99381000    3.87622000      0.425359   -0.63615400    0.54109600
Se   19.58835000    8.05132000   14.03002000     -0.145285   -0.20344900   -0.03061100
Se    0.19164000   13.90129000    5.91696000      0.555806    0.05987100    0.36613400
Se    0.80727000   15.18159000   14.56399000      0.080049   -0.08487500    0.63102100
Se   21.39817000   17.55975000    4.19602000     -0.104691    0.87220000   -0.25396000
Se   21.88738000   21.39376000   10.89368000     -0.563475    0.37318200   -0.09668200
Se    2.61227000    4.62249000    3.54774000      0.286131    0.51902900   -0.27184700
Se    2.18744000    3.09610000   11.84764000      0.136577    0.19175600    0.34692600
Se   21.69830000   11.09880000    2.01016000      0.468655   -0.56153500    0.11034000
Se    1.44713000    9.55482000   11.53958000      0.012235   -0.42861300    0.43388900
Se   22.25208000   16.55098000   18.29874000      1.088088    0.42005200    0.05284700
Se    3.57193000   16.37169000   13.08432000     -0.007315   -1.75793000   -1.19949300
Se    1.57002000   20.66283000    2.49009000     -0.045050   -0.44644400   -0.07210600
Se    4.86623000   19.36610000   15.70397000     -0.345638   -0.16708700   -1.67448600
Se    8.40684000    4.38444000    4.39919000      0.805201   -0.37916900   -0.48934800
Se   10.07931000    3.14479000   14.40335000     -0.805513    0.44803100   -0.95520100
Se    5.84519000    6.09798000    4.58736000     -0.450711    0.82971300    0.02986800
Se    8.40582000   11.29966000   15.97038000      0.126192   -0.09485600   -0.03107500
Se    6.27902000   14.84922000    1.71192000     -0.396500   -0.63176800    1.26260800
Se   10.42805000   14.79969000   11.11474000     -0.073562    1.48559800   -0.30349200
Se    5.30818000   20.95714000    5.86731000      0.477614   -0.56517900    0.81240000
Se   10.05962000   20.37062000   14.70018000      0.704754   -0.04054600   -0.24112000
Se   13.35621000    2.70747000    2.44247000      0.707642    1.12885600    0.91002300
Se   11.26266000    5.77487000   10.95376000      2.827377   -0.12488200    3.73219800
Se   14.10131000    8.44908000    2.96299000     -0.086515   -0.46344800   -0.15002900
Se   11.24125000    9.63131000   14.15468000     -0.665869   -0.54238000    1.13375400
Se    8.91875000   14.08345000    4.38811000     -0.450774    0.18111100    0.08565800
Se   14.75400000   14.00983000    9.75898000     -0.290532    0.12351300   -0.28501600
Se   15.18274000   20.47908000    1.87596000      0.273616   -0.06045000    0.93344200
Se   13.75526000   19.35177000   14.15550000     -0.576132    0.27592300   -0.36811800
Se   18.65361000    5.35475000    1.02267000     -0.217695    1.66672200    0.38888500
Se   14.85209000    5.18159000   14.21204000     -0.053252   -0.49971600   -0.57063500
Se   19.14131000    8.15090000    2.87086000     -0.180831    0.52312700    0.04908200
Se   20.60714000   14.59733000   10.81086000     -0.208637    0.77362100    0.59261800
Se   20.96754000   14.79760000    2.24538000      0.055342    0.08368100   -0.28334400
Se   17.69723000   17.65488000   11.70755000      0.987585    0.33051200   -0.39153700
Se   17.95894000   22.27728000    4.24477000     -0.466545   -0.34417700   -0.09918100
Se   16.61032000    1.17460000   10.67397000     -0.576935   -0.10382000   -0.26405200
