384
22.54784000 22.54784000 18.93360000
Ge    6.06491000    5.26723000    9.29576000     -0.026466   -1.24890100    0.79302000
Ge    4.49778000    7.53072000    1.30857000     -0.151356    1.00838800   -0.26510300
Ge    3.79791000   11.60903000    6.98876000     -0.248452    0.05358800   -0.33328400
Ge    5.85859000   10.56595000   16.95682000      0.113032    0.03417500    0.39874800
Ge    4.14913000   13.86703000    9.91643000      1.372082    0.45997900    0.67822900
Ge    8.89740000   17.69479000    0.49656000      0.201098   -0.20244200    0.11006900
Ge    6.21981000   18.99748000    8.26378000      0.811122    0.36472700   -0.54959900
Ge    4.85671000    1.48523000   16.51887000      0.102676    0.02002600   -0.29777600
Ge    8.68768000    7.60820000    9.96309000      0.707823    0.18452500    0.10694400
Ge   10.71476000    5.35571000    0.03510000     -0.133997   -0.37752300    0.51359500
Ge   12.44995000    8.47075000    8.84116000     -1.195102    1.32800400    1.88331700
Ge    9.71829000   11.54648000    0.27278000     -0.434252    0.61992300   -0.40536000
Ge   10.04730000   16.58236000    9.17930000      0.305165    0.15636100   -0.28422200
Ge   11.76605000   16.15702000   18.66878000     -0.776065   -0.42305500    0.43859300
Ge    9.35521000   22.43133000    9.92841000     -0.377772    0.35840400    0.20740700
Ge   14.19529000    0.34454000    1.49261000     -0.162303    0.56294000   -0.67930000
Ge   18.98586000    5.42318000   10.16700000     -0.693996    0.54534100   -0.09966300
Ge   17.94255000    8.51717000   16.72851000      0.041709   -0.17046100    0.74783100
Ge   17.85731000   15.20897000   10.97541000     -0.258330   -0.95939800   -0.23225300
Ge   17.84178000   12.00427000   17.42987000     -0.099362   -0.02021800    0.34135600
Ge   13.34811000   15.39123000    8.50783000     -0.546486    0.24523600    0.30381500
Ge   16.58709000   15.28967000    0.85585000      0.691502    0.27204500    0.26104900
Ge   16.09253000    3.42573000   10.00537000      0.102130    0.35076600   -0.42260300
Ge   19.11581000    3.08617000    0.29805000     -0.339738   -0.28991200   -0.13390500
Ge    1.66484000    4.25476000    9.82862000      0.442648   -0.29392500    0.13538100
Ge   21.11270000    3.52592000    4.25339000     -0.285328    0.18659800   -0.02936400
Ge    0.49536000   10.74283000    9.54945000      0.150659   -0.21021900   -0.20461900
Ge   21.73144000    9.50052000   18.37166000     -0.563337    0.59803700    0.19411200
Ge   20.57998000   15.10275000    7.83312000     -0.659535    0.42549500   -0.25686500
Ge    4.38343000   15.30216000   17.71208000      0.121366    0.14409300   -0.06876200
Ge   19.29845000    0.72639000   10.27279000     -0.229035   -1.01958200    0.18149800
Ge   21.70067000   19.79630000    3.05077000      0.898361   -0.75938300   -0.57207600
Ge    4.17459000    7.05740000    6.76664000      0.054110    0.37031600   -0.62415100
Ge    1.72007000    7.97540000   17.97221000      1.389250    0.07451800   -0.28630700
Ge   20.94782000   10.04851000    4.51677000     -0.279177    0.31580100   -0.54238500
Ge    3.73060000   13.36756000   14.66843000      0.986305   -0.17163200    1.35204800
Ge    4.42273000   17.95209000    4.76697000      1.718690    0.48120100   -0.42911700
Ge    0.66529000   18.68273000    0.37103000     -0.337598    0.11363500    0.30084100
Ge    3.57966000   18.40189000   10.12308000     -0.544003    0.29045200    1.63754900
Ge    2.14770000    1.05357000   18.01197000     -0.225098   -0.47803300   -0.55035500
Ge   10.04564000    2.40350000    7.44855000     -0.004806    0.28381100    0.05761300
Ge    6.91810000    5.84269000   16.79055000      0.256495    0.33299600    0.05655900
Ge    8.25521000    9.97868000    3.84843000      1.090146   -0.42360300    0.07432000
Ge    9.81588000    7.49446000   16.59507000      0.639003    0.96026900   -0.78060100
Ge    7.51817000   15.42891000    9.88642000     -0.506947    0.48308900   -0.18943300
Ge    9.49938000   15.08488000   16.12147000     -0.388366   -0.46365400    0.15524200
Ge   10.90005000   21.64608000    6.97090000     -0.195896    0.17635000   -0.22243600
Ge   10.74718000    1.02150000   13.46471000     -0.127966   -0.87205900    0.21941100
Ge   11.87671000    7.56527000    5.39044000     -0.735244    0.19597400   -0.97342100
Ge   15.49398000    3.50871000   16.38597000     -1.394587   -0.27972700   -0.02086200
Ge   14.89599000    9.10286000    6.65928000      0.129094    0.15585600   -2.08112900
Ge   14.81087000   12.89166000   15.54824000     -0.535733   -0.46661800    0.35417000
Ge   12.22256000   14.58965000    5.33044000     -0.201527   -0.13505900   -1.18732900
Ge   14.63022000   18.69532000    0.19047000      0.495477   -0.54664300    0.14968500
Ge   14.42798000   22.26333000    8.87461000     -0.269398   -0.09386900    0.46425200
Ge   17.57063000   21.49216000   13.61927000      0.077645    0.13696000    0.27250500
Ge   22.10982000    4.52258000    8.30775000     -1.004884   -0.65279800   -0.09188900
Ge   19.99958000    5.42133000   13.90618000     -0.674785    0.38343600   -0.07078600
Ge   18.99435000   10.85726000    7.90747000     -0.110188    0.17941100   -1.13275400
Ge   21.02452000   15.03011000   16.68501000     -0.071304    0.17232900   -0.03899400
Ge   18.48595000   16.47377000    5.71013000     -0.714013    0.79436400    0.91249100
Ge   17.12293000   17.60911000   16.09913000      0.239030   -1.07791700    0.68142700
Ge   22.08404000    1.27131000    6.51569000      0.451779   -0.15222100   -0.03273800
Ge   18.94494000   21.01414000   17.70022000      0.049656   -0.41546700   -0.79347700
Ge    6.35249000    2.51051000    6.83177000     -0.120249   -0.59566200    0.07588300
Ge    4.47940000    2.71714000   13.01618000      0.605530   -0.06306600    0.14393100
Ge    0.67606000    9.69380000    6.43641000     -0.916263    0.04179200   -1.19170300
Ge    2.57890000    7.10933000   11.33235000      0.094278    0.29031300    0.18272000
Ge    0.65497000   15.66765000    4.02468000     -0.186727   -0.09740300   -0.33017400
Ge    2.62576000   17.12948000   15.18644000     -0.274508    0.43584600   -0.26004900
Ge    3.49663000   21.82544000    9.96240000     -0.250870   -0.43658300    0.34147700
Ge    8.19969000   18.86450000   16.15354000     -0.104538    0.82501900   -0.36333800
Ge    6.68807000    3.51169000    2.47869000     -0.075727   -0.82823000    0.37543700
Ge    9.49750000    3.25922000   16.72812000     -0.516565    0.35146800    1.74186200
Ge    8.51681000    7.04060000    4.30887000     -0.258079    0.11797100   -0.29736000
Ge    7.76909000    9.29142000   13.49038000     -0.192428    0.54035600    0.42764100
Ge    5.93420000   14.63198000    4.40286000     -0.746971   -2.44720800   -0.85299600
Ge   12.24341000   11.97285000   14.70682000     -1.455476   -0.03127900    0.18722200
Ge    7.44479000   20.54949000    4.48440000     -0.268581    0.16207500   -0.72156200
Ge    9.64291000   16.47333000   12.58251000      0.167574    1.10969300    2.12998100
Ge   12.21683000    1.81735000    4.54290000      0.981843    0.05328700   -0.02047300
Ge   12.46334000    4.04298000   14.54456000      0.214295    1.92222800    0.20897200
Ge   17.84421000    3.79110000    5.47246000     -0.523651    0.76360900    0.24464000
Ge   14.20945000    9.33039000   14.38107000     -0.173069   -0.26475800    0.14297000
Ge   14.88697000   13.29281000    3.46560000      0.399984   -0.18160900    1.17753000
Ge   13.20865000   15.55033000   11.87825000     -0.075307   -0.08697500    0.54262300
Ge   10.79837000   18.64623000    4.21755000     -0.059200    0.09664100   -0.03279900
Ge   12.13351000   19.52513000   17.09293000     -0.297986    1.05828000   -0.36840900
Ge    0.12641000    6.25710000    6.15988000     -0.368316   -0.83431800   -0.83974900
Ge   22.13553000    3.79914000   13.28894000      0.234207    0.56253000    0.39062200
Ge   19.93682000    8.00751000    7.10055000     -1.283435   -0.40803100   -0.03266300
Ge   17.06388000   10.11379000   12.24477000      0.008581    0.93889000    0.62259800
Ge   20.14655000   16.68912000    0.66315000     -0.042602    0.39470400   -0.70472000
Ge   19.74493000   15.69307000   13.79951000     -0.716143    1.09231700   -0.28510700
Ge   19.48686000   20.47876000    5.15186000     -1.079416   -0.02245500    0.35391100
Ge   21.64345000   20.77593000   13.72285000     -0.050503    0.12554900   -0.06544000
Ge    3.01353000    2.12664000    3.03896000     -0.562176    0.55508100   -0.21028400
Ge    6.00853000    0.45887000   12.61050000     -0.585141    0.85219100   -0.52580600
Ge    3.77263000    8.47645000    3.58242000     -0.873395    0.70939100   -0.20087800
Ge    6.76850000    4.32553000   14.64210000     -0.458939   -0.55228700   -0.20200400
Ge    4.50291000   12.57816000    1.88921000     -0.012562   -0.03732500    0.14638000
Ge    3.72957000   10.46364000   12.24319000      0.185756    0.16146100    0.50353300
Ge    3.49815000    0.36223000    6.84780000     -0.194606   -0.28561700    0.20185600
Ge    7.16818000   19.82941000   12.43053000      0.688011   -0.18627500    1.02020900
Ge    9.76598000    3.26302000    2.59406000      0.735561    1.07970000    0.57099400
Ge    9.18212000    4.39122000   11.95549000     -0.011250    0.38085600   -0.00307100
Ge   12.23691000    8.47277000    1.55752000      0.872910    0.74775700   -0.87514600
Ge   11.09148000    8.49818000   12.20336000      0.934984   -0.84305900   -0.27774700
Ge    8.48246000   13.49403000    2.02343000      0.307276    0.36541000   -0.37676000
Ge    7.82300000   12.61405000   10.90931000     -0.662760    0.71098600   -0.95932200
Ge   11.84199000   21.03650000    1.68484000     -0.592605    0.23664200   -0.40770500
Ge   11.37562000   19.50021000   12.54631000     -0.243656   -0.43193600    1.26353200
Ge    0.21987000    0.22544000   15.93848000     -0.398296    0.35677500    1.00687500
Ge   12.43272000    1.63940000   10.87498000      1.098667   -0.27160600   -0.60272500
Ge   15.93860000    7.03710000    1.91515000      0.536532   -0.43837000    0.35026500
Ge   15.27946000    6.23922000   11.60883000     -0.257204    0.25696500   -0.44029000
Ge   18.07357000   11.74408000    1.71378000      0.854000    0.23717300   -0.09346400
Ge   16.54121000   16.98532000    9.29526000      0.436932   -0.15525300   -0.90724700
Ge   17.43098000   21.06179000    2.11207000      1.086992   -0.02813200    0.59214900
Ge   15.28442000   19.89277000   10.98628000      0.409268   -0.11922400   -0.33601700
Ge   21.54365000    1.29503000    2.27438000     -0.633918    0.43898900   -0.01631300
Ge    0.24062000    1.25163000   10.48932000     -0.532648    0.40026000   -0.12496000
Ge    0.17773000    7.76520000    1.88073000     -0.048432    0.06623100   -0.08236900
Ge   21.55409000    9.11576000   13.73851000      1.456238   -0.84723900   -0.06679300
Ge   20.53264000   12.89776000    0.76164000      0.151101    0.19676100   -0.14170800
Ge    0.19516000   15.04088000    9.39271000      0.912280    0.45470700   -0.49212900
Ge    3.21462000   20.19131000    4.73673000     -0.333409    0.39865700    0.02519500
Ge   19.94430000   19.42379000   10.93280000     -0.007369    0.14514100   -0.87251400
Se   21.64288000    0.48163000   18.78512000     -0.419987   -0.14048900    0.62067600
Se    1.53417000    1.24837000    8.29928000      0.270866    0.17719200    0.34385600
Se    2.14545000   10.68586000    2.50595000      0.366619   -0.81274500    0.34310600
Se    0.02175000    6.70605000   12.71081000      0.707232   -0.37380800    0.74682400
Se   22.47325000   13.13840000   18.09288000     -0.793445   -0.26970600    0.26551300
Se    2.01800000   12.88738000    9.70253000     -1.866623   -0.56186700   -0.94167000
Se    2.33303000   17.18717000    5.01516000     -1.430289   -0.40055100    0.45080200
Se    2.29336000   16.39941000   10.67040000     -0.257056   -0.82891300   -0.02151400
Se    4.55780000    2.14023000    1.18634000      0.763639    0.12665800   -0.50731800
Se    6.51529000    4.03158000   11.49382000     -0.120675    0.16278600   -0.44117300
Se    6.28242000    5.87104000    2.17793000     -0.269678    1.29637800   -0.41913800
Se    8.56786000    7.03216000   12.44217000     -0.074503    0.30852800   -0.13517700
Se    7.83497000    9.90894000    0.05028000     -0.282271    0.06027600    0.73696000
Se    5.80704000   11.54211000   13.82136000     -0.173743   -0.15854700    0.78095600
Se    5.66428000   20.26741000    2.27063000      0.383848    1.80829800    0.13888300
Se    8.93363000   18.16704000   11.00787000      0.280557    0.49627100   -0.01000700
Se   11.87379000    1.76127000    0.69906000      0.279438    0.64994300    0.14598900
Se   13.14069000    1.96069000   13.77495000      0.094582   -1.07251300   -1.07403600
Se   12.23315000    7.16007000   18.35046000      0.805758    0.96170800   -0.34573900
Se   10.29987000    9.80607000   10.31962000     -0.766813   -0.03951800   -0.56732800
Se   13.41542000   14.42747000    1.93307000     -1.004481   -0.45106300    0.07915200
Se   12.68728000   10.83498000    7.77865000     -0.232304   -0.46790300   -0.14388800
Se   14.32938000   17.38374000    2.43562000     -0.348215   -0.03687600   -0.30019100
Se   13.07726000   17.31890000   10.07978000     -0.428432   -0.02421300   -0.55829500
Se   18.72244000    4.04319000    2.80266000      0.015055   -0.38831100    0.27631900
Se   16.10198000    1.59240000   13.53585000      0.962876   -0.02038200   -0.35529900
Se   15.63471000    8.33036000   18.20020000      0.535673   -0.34189100    0.53337500
Se   17.70759000    5.43356000   12.52220000      0.959941   -0.44782800   -0.61581500
Se   19.12361000    9.39848000    0.77127000     -0.515195    0.21831000   -0.27316100
Se   16.63916000   15.02319000    6.83622000      0.604297   -0.59450000    0.11662700
Se   20.64099000   20.22115000    0.81203000      0.799484   -0.45616000    0.01264000
Se   16.60656000   19.13283000    7.44797000      0.131664   -0.40504600    1.02098300
Se    1.35355000    0.95499000    1.67541000      0.278943    0.05750000    0.33642300
Se    6.17105000    7.62131000    9.74809000     -0.449126    0.71938800    0.27877900
Se    6.53000000   10.28429000    2.08615000     -0.303946    0.53973400   -0.42824700
Se    4.45982000   11.11808000    9.89182000      1.170900    0.47683200   -0.30595800
Se    2.94208000   15.37015000    1.20927000     -0.059325   -0.52610900    0.28837700
Se    2.89312000   13.24447000   12.48040000     -0.723254   -0.69825800   -0.61514000
Se    3.73253000   21.49438000   17.88417000     -0.129969    0.53335700    0.75161500
Se    5.81859000   20.29306000   10.41924000     -0.539733    0.35368900   -1.38146100
Se   11.88410000    4.73717000    3.04770000     -0.310041    0.03230600   -0.35824300
Se    7.52325000    4.63762000    7.43867000     -0.471445   -0.19730500    0.12026400
Se   11.72041000   10.89018000    1.43954000      0.741446   -0.23736200    0.34187700
Se    6.86029000   10.49218000   10.64543000     -0.863117   -0.07978200   -0.50902900
Se   10.01212000   15.55284000    1.78821000     -0.501336    0.20454800    0.08420400
Se   12.68624000   12.44083000   12.22009000     -0.892613    0.63783600    0.60963500
Se   10.22011000   21.55589000   17.96855000      0.148989   -0.00890700    0.09933300
Se    8.29503000   22.18425000   12.15071000      0.344148   -0.10866600   -0.36216000
Se   14.66525000    5.45300000    0.47094000      0.019727   -1.18139100   -0.42553200
Se   16.35679000    6.67425000    8.79307000      0.650992   -1.02281800   -0.07116200
Se   15.21838000   10.55112000    0.04628000      0.087762    0.32476800   -0.42800800
Se   14.85553000   12.33474000   13.12456000      1.786080   -0.79355200   -0.30536000
Se   18.74666000   14.79797000    2.94395000     -1.151135    0.70078900   -0.56863700
Se   16.49776000   11.15388000    9.83178000     -0.719426    1.01044200    0.38114400
Se   17.86251000    0.15615000    0.17072000     -0.607826   -0.09122800    1.29796600
Se   15.15658000   21.04489000    6.60717000      0.682514   -0.91980800    1.22480200
Se    0.12027000    4.24661000    1.34983000     -0.630725   -0.41661100    0.18347300
Se   21.10374000    4.24567000   10.81635000      0.201113    0.13174000   -0.02559400
Se   21.20574000    5.92066000    0.28505000      0.728623    0.35655700    0.16808300
Se   20.94720000   11.12455000   12.76555000     -0.757673    0.16554800   -1.14980400
Se   18.90588000   14.62560000   18.31279000      0.572344    0.20345100    0.06499300
Se   21.47593000   16.36965000   12.04825000     -0.561725    0.27750900    0.70498500
Se   21.29658000   21.92719000    4.00067000      0.264967    1.05258900    0.10489900
Se   17.85754000   20.93920000   11.13252000     -0.950356   -0.05702600   -0.59871400
Se    3.57992000    5.53268000    8.93573000      0.112443   -0.19248500   -0.21083300
Se   21.91527000    3.10214000   17.90958000     -0.289171   -0.29247100   -0.82725600
Se    2.33380000    9.49559000    8.12443000      0.364383    0.64166800    0.53479900
Se    1.36747000   10.67030000   17.14958000      0.254930   -0.92695800    0.49187500
Se    4.05905000   17.95406000    7.89630000      0.193932   -0.43296600   -0.81577600
Se    0.12158000   18.11191000   15.08445000      0.135304   -0.40715200    0.56069600
Se    0.83343000   19.03263000   12.83853000     -0.052465   -0.36524800   -0.48016200
Se    1.54292000   20.36921000   17.72593000      0.109354    0.63820000   -0.92656000
Se    4.22819000    4.16955000    5.31062000      0.470532    0.26652000    0.62728500
Se    4.96820000    6.08063000   18.30772000      0.056666   -0.68992200   -1.26075900
Se    4.62031000    9.46459000    5.55272000      1.156408    0.46695400    0.95502200
Se    3.31402000    6.60259000   16.34154000     -0.018773    0.66345100    0.68780200
Se    6.68098000   14.34475000   12.14843000      0.229471   -0.05973900   -1.02717000
Se    6.84769000   17.06419000   17.80177000      0.149472   -0.42542900    0.23007900
Se    9.43527000   18.35114000    6.32132000      0.888933    0.45619100    0.53071000
Se    6.06144000   19.68851000   17.80802000     -0.126680    0.35639000   -0.30374300
Se   10.12351000    2.21291000   10.43174000     -0.973106    0.68475100    0.13474100
Se   12.56324000    3.90818000   16.92029000     -0.682053    0.43985400    0.40551700
Se   13.40433000    7.10484000    7.23204000      1.301168   -1.51756900   -0.76834900
Se   13.99128000   10.72132000   16.79358000     -0.116161    0.85035300   -0.33270500
Se   11.50367000   14.05650000    7.55079000     -0.610578    0.36268300    1.62453500
Se   13.84706000   15.73771000   17.26850000      0.202267   -1.16599400    0.39741500
Se   12.36124000    1.26490000    7.90398000     -0.077388   -0.82017900   -0.29121500
Se   13.98586000   21.68974000   18.26264000      0.285807    0.68319100   -0.99440200
Se   13.82036000    4.22851000   10.34785000     -0.188917   -0.54147600    0.26555200
Se   20.68454000    2.17594000   15.73855000      1.119797   -0.23109900    0.28777600
Se   18.75152000   10.91615000   10.44165000      0.918345   -0.09915500    0.56770500
Se   17.28058000   10.52389000   15.48900000     -0.056059    0.36567300   -0.46026700
Se   13.87599000   16.28599000    6.25961000      1.034159    0.00063200   -0.13544200
Se   20.29618000   13.52397000   14.48380000      0.426886   -0.84412100    0.09884900
Se   19.09493000   21.46936000    8.18900000      0.197360    0.04795200   -0.13463000
Se   18.70094000   18.55952000    2.53879000     -0.251036    1.15898700    0.39615600
Se    4.90539000    1.23269000    8.72631000      0.652360    0.83848500   -0.58350900
Se    3.27853000    3.27987000   18.48334000     -0.215581   -0.18922600   -0.14116300
Se    9.60835000    9.93913000    6.88329000     -0.566810   -0.27723400   -0.22593900
Se    3.83429000    9.78734000    0.12349000      0.299170   -0.21400800   -0.04153800
Se    6.58620000   16.61401000    5.33593000      0.322787    1.83500600    1.17768500
Se    4.65077000   12.66863000   18.30852000     -0.009686   -0.32851500   -0.59795200
Se    1.56641000   19.91661000   10.34088000      0.495954    0.31324900   -0.04507500
Se    2.98485000   18.23612000    1.58672000     -0.887809    0.07449600    0.09664600
Se    8.05944000   22.45619000    7.86309000     -0.121547   -0.41676500    0.81959300
Se    8.40764000    3.54395000    0.63530000     -0.363504   -0.28544900    0.10463400
Se   10.09891000    5.48663000    9.04310000     -0.011879   -0.26963200   -0.47394500
Se    8.49645000    6.84690000   18.48032000     -0.041649   -0.77296900    0.90700900
Se    7.99023000   11.89360000    5.37307000      0.172103   -0.13506300    0.55553800
Se    7.34755000   14.50451000   17.30679000      0.563310    0.42031400    0.00262500
Se   11.30334000   21.38405000   10.79991000      0.888605   -0.18039800   -0.45038600
Se   10.85884000   13.81516000   17.90052000      0.179051    0.06519400   -0.08041000
Se   16.50299000    0.30915000    7.78377000     -0.193902    0.05043700   -0.03637300
Se   15.84604000    3.16064000    0.11968000     -0.329017    0.46938500    0.32139700
Se   16.26315000    4.17036000    7.60949000     -0.196163    0.38571300    0.66346900
Se   14.82211000    6.69092000   15.83205000     -0.359864    1.86979000    1.04347000
Se   15.74282000    9.08013000    8.86249000      0.440925   -0.79562700    1.09448100
Se   14.56999000   13.62042000    0.10181000      0.421508   -0.55796800   -0.05972400
Se   13.23488000   18.55291000    5.57640000     -0.821401    0.25005300    0.31187000
Se   17.33671000   17.63295000   18.80803000     -0.836900    0.23826100   -0.57740300
Se   20.84877000    1.78888000    8.56381000      0.471477    1.28403700    0.14321800
Se    0.86822000    0.08919000   13.65503000      0.124035    0.77914500   -0.14778300
Se   19.97518000    8.01868000    9.90689000     -0.037588   -0.49501600   -0.37771800
Se   22.21005000    7.11536000   17.00480000     -0.415593   -0.14010400   -0.28271700
Se   21.11766000   11.56635000    7.04253000      0.736807   -0.26768600    0.36411600
Se   20.47087000   11.50730000   16.90925000      0.029528   -0.29037700    0.51522500
Se   19.07042000   17.26189000    8.29805000     -0.243394   -0.55341300   -0.57568400
Se   19.87049000   17.42019000   15.63556000     -0.246498   -1.02419800   -0.12735300
Se    3.72215000   22.05345000   12.47105000     -0.186064   -0.17541900   -0.33949800
Se    2.63778000    1.90063000   14.82814000     -0.621643   -1.11438300   -0.34193000
Se   21.99064000    7.72381000    8.31171000      0.693852   -0.03026500    0.99473700
Se    0.70149000   10.41973000   14.93784000      0.211401    0.01712500   -0.11147500
Se    3.93322000   14.83488000    6.03786000      0.063894   -0.23350400   -0.18923500
Se    2.42673000   13.97989000   16.79672000     -0.332713   -0.31113300   -0.75102500
Se    0.07059000   17.21943000    7.72799000     -0.016127   -0.33147100    0.19525600
Se    2.60847000   19.94785000   14.13098000      0.549392   -0.49998700    0.60194300
Se    6.71965000    0.88184000    3.08563000      0.323078   -1.06142000   -1.09060400
Se    7.22826000   22.18607000    0.86270000      0.469879    0.74351000    0.64411000
Se    9.17739000    7.55229000    6.75894000      0.566190    0.42004600   -0.20507000
Se    4.07543000    3.76173000   15.47455000      1.372919    1.51939900   -0.01667000
Se    5.35506000   12.10472000    4.49408000      0.433855    0.44219500    0.54966000
Se    9.80487000   13.47950000   14.15922000      0.166569   -0.43215400    0.16356600
Se    7.95344000   18.00311000    3.81741000      0.172224   -0.18344400   -0.04323900
Se    8.28094000   16.90368000   14.65474000     -1.145218   -0.49872000   -1.28149200
Se   14.19531000   22.27531000    4.88849000     -0.382471    2.71392400   -1.72167000
Se   13.55336000    0.94929000   16.37519000      0.233360   -1.30940700    0.87392800
Se   12.73075000   10.10917000    5.18882000     -0.607774   -0.22898100   -0.16735400
Se   11.21568000    5.97414000   13.68032000      0.342644    0.39075900    0.33820500
Se   13.93147000   12.80162000    5.73447000      0.662316    0.73874700   -0.82781700
Se   12.90704000   14.42057000   14.99851000      0.363886   -0.10241500    0.20628700
Se   11.66424000   18.80199000    7.63873000     -0.524950   -0.00275400   -0.78201500
Se   11.90943000   18.47395000    1.68210000      0.598548    0.04307900   -0.35959500
Se   19.42971000    1.77009000    5.68504000      0.454534    0.27861800   -0.36199000
Se   18.90063000    0.96277000   16.77449000      0.113035    0.17339300   -0.30517200
Se   19.88303000    5.20477000    6.85051000     -0.180050    0.28434100   -0.19850000
Se   18.98149000    5.86963000   16.11990000      0.224986    0.12999500   -0.26996100
Se   19.20177000   12.07748000    4.29975000     -0.094376   -0.93227900   -0.47669500
Se   17.32557000   14.83560000   13.43488000      0.898674   -0.02273800   -0.37070300
Se   17.31795000   18.68089000    5.20162000      0.142594   -0.15330700   -0.72207900
Se   16.94287000   19.94276000   16.11321000      0.204754    1.45657300    0.09402700
Se    2.11343000    7.51112000    5.28699000      0.320873   -0.46632000   -0.02962900
Se    2.39871000    6.51079000   13.85498000     -0.976818    0.25525300   -0.43718700
Se    1.02136000   11.92834000    4.52636000      0.374943   -0.82443500    0.48448200
Se    3.68883000   10.75829000   15.20341000      0.874412    0.36021500   -0.41351700
Se    5.99984000   14.11765000    7.78376000     -1.299971    0.56886600   -0.41112700
Se    3.29951000   17.54650000   17.53955000     -0.364530    0.57283700   -0.09181400
Se    2.30847000   20.20510000    7.24007000     -0.201815    0.63596100   -0.60285900
Se    6.40567000   21.83967000   14.62200000     -0.348945   -1.91240500    1.16831100
Se    8.95394000    0.54813000    5.54068000      1.086747    0.37303300   -0.23633200
Se    6.98341000    2.07197000   17.79861000      0.540886   -0.24073400    0.21613500
Se   13.31861000   11.46872000   10.02635000      0.637606    0.03525900   -0.21899200
Se   10.51740000   10.16134000   17.28555000     -0.834482    0.11892000   -0.90984700
Se    8.15657000   13.48523000    8.39383000      1.382462   -0.89500600    1.36356900
Se   11.65030000   16.59365000   14.18359000     -0.038363    0.71474200   -1.44738600
Se   12.17199000   21.05299000    4.38500000     -1.320309   -0.97872000    0.59012300
Se   10.32136000   17.74509000   16.96281000      0.545432   -0.69088900    1.55254700
Se   11.20568000    4.54662000    6.64324000     -0.747684    0.19284000    0.33925900
Se   17.56014000    4.27220000   17.17397000      1.556102    0.45994500    0.59831000
Se   16.99459000    8.21086000    4.97368000     -0.648383   -0.82992000    0.26381200
Se   16.16403000    8.12888000   13.22818000      0.707121   -0.08877000    0.04433800
Se   17.64189000   10.85025000    5.65738000     -0.132276   -0.13991000    0.14325500
Se   14.42943000   17.57489000   16.14870000      0.365254    1.42556900   -0.71122300
Se   15.21528000    2.30868000    4.86389000      1.023925   -0.31024200   -0.28861100
Se   18.74790000    2.48459000   13.09758000     -0.803061    0.75281700   -0.22051000
Se    1.01387000    3.29211000    5.69821000     -0.976299   -0.23043500    0.17054600
Se    0.74628000    4.33888000   15.93485000     -0.720246   -0.13203400    0.03790000
Se   18.25969000   13.56913000    8.17059000      0.011569    0.43431600   -0.10500000
Se    0.02221000   12.96669000   13.36865000      0.141626    0.81413100    0.10897000
Se   20.35583000   14.87872000    5.25483000      0.342914   -0.00337200    0.80670500
Se   19.56820000   19.51905000   13.32883000      0.020971   -0.10161400    1.04021800
Se   21.30205000   19.45051000    7.86425000     -1.228880   -1.48065000    1.42760200
Se   21.54510000   20.42042000   16.47710000     -0.250956    0.39154000   -0.88672800
Se    4.45684000    0.82805000    4.34647000      0.021474   -0.32253100    0.82080500
Se    7.14643000    1.72294000   15.04125000     -0.015285    0.96413700    0.12693300
Se    2.32967000    6.28267000    0.97041000     -0.258778    0.39884700    0.62380300
Se    5.07609000    7.65044000   12.06382000     -0.362660    0.13988700   -0.43850900
Se    1.38313000   13.58689000    1.81792000      0.347684    0.57921800   -0.35694900
Se    5.25786000   15.61448000   15.20171000     -0.359925   -0.88599100   -0.55830700
Se    5.33952000   18.03650000    2.24629000      0.017476   -1.67542200    0.23298800
Se    5.15825000   17.84991000   12.14501000      0.021936    0.50573200   -0.81433700
Se   10.11281000    1.00690000    3.20463000     -0.443751   -0.67067000    0.09654200
Se   10.84698000    1.14481000   16.86515000      0.094594   -1.17887400    0.18458800
Se   10.46901000    7.23232000    2.21320000     -2.313074   -0.82253300    1.22541300
Se    7.30733000    8.19960000   15.84604000     -0.188037    0.11603500   -0.45679700
Se   10.78629000   11.47094000    4.16137000     -0.500327   -0.73383300    0.03976400
Se    9.57764000   11.78662000   12.10556000      1.369030   -0.79172900    0.96949900
Se    9.16277000   20.50016000    1.81493000      0.217207   -0.30039400    0.15925100
Se   15.63301000   17.82888000   12.56545000     -1.148542    0.31248800    0.92408100
Se   13.54173000    3.62284000    5.94004000      0.366240    0.19424100    0.35153700
Se   16.04678000    1.04818000   15.90962000     -0.137238   -0.26440800    0.05768300
Se   15.94851000    5.74445000    4.44315000      0.431418    1.06467200    0.04944600
Se   13.61899000    8.74462000   11.33388000     -0.503339   -0.42115400   -0.18972100
Se   16.03688000   11.14502000    2.91664000     -0.653508    0.31715500   -0.05981400
Se   16.68580000   14.06844000   16.29796000      0.432726   -0.04068700    0.51383800
Se   16.11051000   15.44848000    3.87259000     -0.053288   -0.24045900   -0.54991600
Se   14.63785000   21.21131000   12.95616000     -0.156195    0.52803300    0.09901300
Se   22.33280000   20.97640000    6.64468000      1.647029    0.83383100   -0.99738700
Se   19.76993000    0.43711000   13.35381000      0.145601   -0.52713100   -0.10217200
Se   21.45263000    6.87466000    3.97136000      0.262884   -0.55023400    0.52323500
Se   19.56628000    8.13067000   14.10972000     -1.142269   -0.88737600    0.08822300
Se    0.01211000   13.98516000    5.87436000      1.019967    0.11858300    0.14454400
Se    0.94795000   15.07975000   14.58937000      0.038614    0.21681800    1.05097400
Se   21.18747000   17.54709000    4.27162000      0.433080    0.37661800   -0.15186900
Se   21.79584000   21.55070000   10.76410000     -0.585263   -0.61197500    0.20427400
Se    2.57160000    4.46966000    3.66759000     -0.158226    0.42902500   -0.85912000
Se    2.38590000    3.08958000   11.79779000     -0.916722    0.05821500   -0.07849600
Se   21.63701000   10.94627000    2.06347000      0.526760    0.16141700   -0.28015300
Se    1.50092000    9.52246000   11.48911000     -0.098993   -0.35947100    0.60420900
Se   22.50179000   16.49455000   18.12727000     -0.006829    0.41406100    0.58851800
Se    3.67243000   16.28746000   12.91541000     -0.420727   -0.85663700    0.61878800
Se    1.52861000   20.84227000    2.45799000      0.035952   -1.20415700    0.15773800
Se    4.89971000   19.34888000   15.67166000      0.601108    0.06581600   -0.00540200
Se    8.39320000    4.27293000    4.42120000      0.368010   -0.31780700   -0.08797800
Se   10.00418000    3.22021000   14.44441000     -0.573956    0.09151100   -1.81232600
Se    5.72191000    6.05663000    4.66116000     -0.172266    0.79918700    0.15251000
Se    8.40159000   11.27829000   15.88681000      0.073977   -0.30912600   -0.03075200
Se    6.29090000   14.67545000    1.87817000     -0.510609    0.11698200   -0.09190400
Se   10.44297000   14.95458000   11.08149000      0.731761   -1.24117200   -1.09397200
Se    5.31400000   21.00245000    5.91193000      1.024452   -0.39928500    1.02716400
Se   10.14503000   20.41257000   14.69868000      0.550390   -0.17300800   -0.55913500
Se   13.33349000    3.01069000    2.34221000     -0.345359   -0.96951000    0.19197800
Se   11.42374000    5.90723000   10.98096000      0.414814    0.01249100   -0.02460700
Se   14.16054000    8.52249000    2.94607000     -0.277097   -0.46214200    0.09305300
Se   11.24625000    9.57874000   14.30086000     -0.317453   -0.12590800    0.33663800
Se    8.69390000   14.13539000    4.40118000     -0.080771   -0.13641600    0.29368300
Se   14.91290000   14.10878000    9.72259000     -0.226538   -0.06791500    0.10117300
Se   15.09465000   20.58830000    1.88942000     -0.349602   -0.95529800    0.77484600
Se   13.78295000   19.30277000   14.15406000     -0.697368    0.41831600   -0.45869400
Se   18.64858000    5.54999000    0.95068000      0.119064    0.04184300    0.35703700
Se   14.83940000    5.19853000   14.17897000     -0.227749   -1.52360400   -1.40383700
Se   19.30413000    8.21154000    2.81640000     -0.180430    0.33353600    0.36564200
Se   20.48957000   14.77311000   10.57805000     -0.589808   -0.28594400    0.76958100
Se   21.06417000   15.00923000    2.26751000      0.432500   -1.17354700   -0.46003000
Se   17.70706000   17.59662000   11.57428000      1.598529    0.40865300   -0.97349700
Se   17.96419000   22.43640000    4.29020000     -0.285837   -0.60859500   -0.71379100
Se   16.53290000    1.11104000   10.58253000     -0.019870    0.30882800   -0.19232700
