384
22.54784000 22.54784000 18.93360000
Ge    6.05509000    5.27429000    9.28828000      0.126001   -1.33043500    0.88615400
Ge    4.50566000    7.51212000    1.34390000     -0.113387    1.01406800   -0.35950800
Ge    3.79086000   11.65989000    6.99270000     -0.186951   -0.10943400   -0.46959900
Ge    5.90170000   10.54611000   17.02633000      0.047045   -0.04829900    0.10339800
Ge    4.16921000   13.80080000    9.86688000      1.063670    0.25578000    0.73367600
Ge    8.90985000   17.71549000    0.45026000      0.233222   -0.17382400    0.19890000
Ge    6.23675000   18.90020000    8.22424000      0.788802    0.80391900   -0.06871600
Ge    4.85288000    1.52843000   16.52550000      0.144321   -0.01639800   -0.35489300
Ge    8.70125000    7.66278000    9.97681000      1.012992   -0.37478200   -0.02389300
Ge   10.75646000    5.34715000    0.04680000     -0.438081   -0.55568500    0.57400500
Ge   12.45544000    8.49191000    8.87870000     -1.165806    1.19698300    1.87395000
Ge    9.70005000   11.53634000    0.31753000     -0.242882    0.64305500   -0.70527500
Ge   10.05727000   16.54174000    9.19312000      0.169871    0.51724400   -0.70592200
Ge   11.79754000   16.18809000   18.73964000     -0.921236   -0.63661200    0.24548600
Ge    9.34646000   22.38988000    9.92960000     -0.208918    0.49875800    0.10296200
Ge   14.16929000    0.39824000    1.48172000     -0.138723    0.52160400   -0.60338000
Ge   19.04268000    5.48692000   10.17101000     -0.675031    0.34654800   -0.13036900
Ge   17.90880000    8.52050000   16.74287000      0.060904   -0.17999800    0.59001600
Ge   17.81803000   15.14347000   10.98686000     -0.239249   -0.54793300   -0.15631700
Ge   17.85335000   11.97740000   17.32915000      0.042495   -0.18368400    0.92998700
Ge   13.35390000   15.35132000    8.51654000     -0.460665    0.31101800    0.05446000
Ge   16.58406000   15.27164000    0.85282000      1.007505    0.54376000    0.32456600
Ge   16.04243000    3.42689000    9.97147000      0.421398   -0.16704800   -0.10851300
Ge   19.09211000    3.05045000    0.28626000     -0.311135   -0.05256900   -0.16703500
Ge    1.65078000    4.26908000    9.85563000      0.786517   -0.07471900    0.09477700
Ge   21.06610000    3.53601000    4.25316000     -0.027814    0.22095100    0.10661900
Ge    0.46035000   10.74627000    9.53418000      0.157581   -0.12114200   -0.07600300
Ge   21.70689000    9.46112000   18.39209000     -0.441868    0.70637100    0.24484400
Ge   20.53094000   15.09998000    7.82302000     -0.503794    0.30788300   -0.14395500
Ge    4.36106000   15.36025000   17.68130000      0.159804    0.14461000   -0.08934200
Ge   19.29605000    0.71191000   10.26732000     -0.158307   -0.97391400    0.02365400
Ge   21.70468000   19.72124000    3.03283000      0.871415   -0.23870500   -0.17340900
Ge    4.17406000    7.06945000    6.70706000      0.085064    0.38214200   -0.41322100
Ge    1.69355000    7.98439000   17.98898000      1.606015    0.06734300   -0.07450200
Ge   20.98467000   10.05420000    4.55353000     -0.400744    0.37571000   -0.70990900
Ge    3.79986000   13.40821000   14.66891000      0.886158   -0.23233300    0.93696600
Ge    4.40417000   17.83841000    4.76434000      1.603958    1.08799500   -0.59351800
Ge    0.62354000   18.68900000    0.42141000     -0.310166    0.16969700    0.00235300
Ge    3.55290000   18.39362000   10.03191000     -0.963445    0.40265200    3.11589800
Ge    2.14848000    1.13941000   17.97342000     -0.360939   -1.07937600   -0.50025600
Ge   10.05420000    2.47567000    7.47084000      0.067896    0.11117400    0.11137300
Ge    6.91178000    5.86565000   16.76405000     -0.059722    0.23456700   -0.04648100
Ge    8.29164000    9.88546000    3.88698000      1.056384   -0.23367300   -0.04871800
Ge    9.85395000    7.52705000   16.62249000      0.834231    1.01403400   -1.27974000
Ge    7.54875000   15.45600000    9.92569000     -0.602018    0.37071300   -0.43606600
Ge    9.52358000   15.06239000   16.11657000     -0.374925   -0.44714000    0.43891500
Ge   10.87114000   21.65412000    6.95336000     -0.125860    0.19598300   -0.14808500
Ge   10.78123000    1.05328000   13.44583000     -0.168206   -0.71169500    0.17771700
Ge   11.86678000    7.55780000    5.40816000     -0.719075    0.04964800   -0.93459800
Ge   15.51458000    3.44614000   16.40500000     -1.726228   -0.06373600   -0.10982200
Ge   14.95389000    9.09757000    6.57181000      0.327501    0.02684500   -1.19265100
Ge   14.79527000   12.87757000   15.59348000     -0.334996   -0.20177700    0.38372800
Ge   12.27537000   14.57703000    5.33314000     -0.929862   -0.06432300   -1.41231800
Ge   14.63548000   18.69697000    0.14878000      0.533289   -0.40132000    0.35718300
Ge   14.42496000   22.22423000    8.82937000     -0.376093   -0.27842500    0.42031800
Ge   17.59331000   21.47000000   13.58746000      0.161615    0.40530900    0.52885600
Ge   22.13227000    4.53726000    8.31216000     -1.080865   -0.64982700   -0.37774600
Ge   20.02248000    5.42320000   13.81936000     -0.852581    0.54027300    0.26091700
Ge   18.98419000   10.88273000    7.94954000     -0.076467    0.12840500   -1.47811600
Ge   20.95997000   15.03139000   16.70011000      0.247965    0.35787500   -0.02573400
Ge   18.45911000   16.51757000    5.75328000     -0.716747    0.43042300    0.85153800
Ge   17.09824000   17.67100000   16.07202000      0.426834   -1.45184200    0.55894700
Ge   22.09702000    1.23875000    6.48459000      0.346156   -0.22117300   -0.03235700
Ge   18.94579000   21.02606000   17.66947000      0.045853   -0.33978200   -0.57665800
Ge    6.33667000    2.47170000    6.77524000     -0.058681   -0.43896200    0.22076700
Ge    4.42028000    2.67638000   13.00331000      1.182305   -0.06166900    0.41667200
Ge    0.65758000    9.67328000    6.40546000     -0.577536    0.10804400   -0.91344500
Ge    2.63400000    7.12571000   11.38188000     -0.007897    0.13141400    0.02895300
Ge    0.69185000   15.66959000    3.96924000     -0.440244   -0.33285900   -0.21601000
Ge    2.58425000   17.16296000   15.19338000     -0.157407    0.34873600   -0.38625600
Ge    3.55438000   21.85888000    9.93205000     -0.241270   -0.47773800    0.42031600
Ge    8.28374000   18.85202000   16.15009000     -0.645623    1.23540300   -0.55011300
Ge    6.68959000    3.47461000    2.44863000     -0.206570   -0.62157800    0.30050900
Ge    9.52353000    3.27121000   16.77988000     -0.228875    0.27877600    1.07647400
Ge    8.51938000    7.00386000    4.31544000     -0.224004    0.13403900   -0.33522200
Ge    7.82153000    9.29671000   13.49507000     -0.100650    0.62387500    0.24589200
Ge    5.86305000   14.64439000    4.32474000     -0.370756   -2.14921400    0.31852800
Ge   12.23040000   12.01952000   14.65621000     -1.602878   -0.23349900    0.27422600
Ge    7.44272000   20.56535000    4.51201000     -0.184175    0.04393900   -0.84618400
Ge    9.61383000   16.40089000   12.57746000     -0.086400    1.83362900    2.50917200
Ge   12.22647000    1.78603000    4.53373000      1.046709    0.15220900   -0.00891400
Ge   12.48448000    4.07691000   14.52350000     -0.071785    1.70586900    0.45665400
Ge   17.82402000    3.77565000    5.49654000     -0.380826    0.61928000    0.08709300
Ge   14.19388000    9.34054000   14.38096000      0.017161   -0.41223500    0.09523300
Ge   14.96658000   13.29728000    3.43973000     -0.217040    0.10571700    1.21881600
Ge   13.18307000   15.53764000   11.81663000      0.114481   -0.14703000    0.75915000
Ge   10.79852000   18.64228000    4.24971000     -0.187124    0.03885300   -0.04138600
Ge   12.10958000   19.54439000   17.10595000     -0.321799    1.15831900   -0.39705600
Ge    0.13126000    6.29367000    6.15430000     -0.232514   -0.75514100   -0.62543700
Ge   22.12522000    3.85215000   13.31037000      0.477726    0.43072200    0.49485800
Ge   19.95039000    8.01589000    7.12692000     -1.235302   -0.40742300    0.05095700
Ge   17.05694000   10.12274000   12.28218000      0.010991    1.01912400    0.45598000
Ge   20.15172000   16.64999000    0.68641000     -0.126834    0.74254400   -1.01923300
Ge   19.75061000   15.66437000   13.81971000     -0.669351    1.16445900   -0.56164300
Ge   19.46040000   20.52132000    5.10459000     -0.956137    0.06664900    0.45984700
Ge   21.63501000   20.70320000   13.72068000      0.014919    0.66754300    0.10203300
Ge    3.03107000    2.08307000    3.07707000     -1.541826    1.10746900   -0.68677300
Ge    5.94605000    0.45642000   12.55980000     -0.227975    1.04007300   -0.67753600
Ge    3.77972000    8.52176000    3.57580000     -0.842167    0.78513400   -0.18529700
Ge    6.78461000    4.32967000   14.62658000     -0.466528   -0.60759700   -0.26897400
Ge    4.49164000   12.63053000    1.84355000     -0.177319   -0.13906800    0.08568800
Ge    3.76950000   10.44357000   12.25831000     -0.124631    0.07759500    0.59745700
Ge    3.48289000    0.29865000    6.90513000     -0.131558    0.06842900    0.05920300
Ge    7.15941000   19.83704000   12.43911000      0.632757   -0.09465100    0.84490100
Ge    9.71971000    3.27244000    2.68675000      0.885029    1.16225000   -0.44922200
Ge    9.22480000    4.40006000   11.93416000     -0.100293    0.38538500   -0.10248200
Ge   12.24299000    8.43690000    1.58929000      0.335721    0.85709300   -0.76480000
Ge   11.03156000    8.52723000   12.20468000      1.076676   -0.80557500   -0.09910600
Ge    8.50399000   13.46823000    2.03936000      0.439183    0.46972800   -0.29894200
Ge    7.78774000   12.64099000   10.92138000      0.005653    0.00458600   -1.26704800
Ge   11.82056000   21.06139000    1.72751000     -0.636895    0.15860000   -0.46314600
Ge   11.39398000   19.47230000   12.53721000     -0.238740   -0.39444500    1.10805200
Ge    0.26020000    0.14724000   15.93292000     -0.483689    0.50451700    1.13219800
Ge   12.45005000    1.60548000   10.83897000      0.806089   -0.15402600   -0.48297500
Ge   15.92581000    7.05561000    1.89661000      0.770395   -0.45688400    0.32162200
Ge   15.28125000    6.21917000   11.66243000     -0.279254    0.26300100   -0.63526900
Ge   18.06518000   11.78935000    1.66407000      0.616508    0.17427800    0.08907000
Ge   16.53631000   16.99160000    9.19537000      0.306804   -0.23808600   -0.62349600
Ge   17.39914000   21.02528000    2.10639000      1.168950    0.10249400    0.55158900
Ge   15.24568000   19.88273000   10.92921000      0.524792   -0.08163300    0.09338400
Ge   21.50330000    1.28169000    2.24429000     -0.550393    0.36909300    0.03795500
Ge    0.25185000    1.21716000   10.50036000     -0.347278    0.66998600   -0.10457500
Ge    0.05447000    7.76541000    1.84793000      0.017247    0.02244800    0.21494600
Ge   21.55277000    9.05933000   13.76444000      1.465211   -0.34543500   -0.24276600
Ge   20.54981000   12.93764000    0.72360000     -0.023283    0.01359100    0.10994400
Ge    0.21657000   15.08157000    9.39528000      0.831446    0.41622800   -0.46563300
Ge    3.29736000   20.25332000    4.76972000     -0.303408   -0.22235200   -0.34421800
Ge   20.01600000   19.42676000   10.93775000     -0.408398    0.21705500   -0.60207400
Se   21.59484000    0.47874000   18.75157000     -0.236572   -0.14746100    0.58968900
Se    1.49819000    1.23149000    8.30425000      0.509544    0.14982400    0.27119400
Se    2.12743000   10.69942000    2.47976000      0.297168   -0.74474900    0.35761300
Se   22.54158000    6.67236000   12.73328000      0.737804   -0.35561700    0.62622100
Se   22.46103000   13.14473000   18.10065000     -0.443789   -0.19457000    0.05645400
Se    1.96032000   12.93014000    9.71053000     -1.578165   -0.54183100   -0.83148700
Se    2.27972000   17.18134000    5.01350000     -1.501141   -0.08963100    0.46658600
Se    2.27415000   16.37467000   10.67942000     -0.053374   -0.56263900   -0.19432300
Se    4.50723000    2.15969000    1.19575000      0.944153   -0.03454700   -0.56397100
Se    6.54612000    3.96200000   11.49474000     -0.116516    0.31550300   -0.53991500
Se    6.30242000    5.83555000    2.20314000     -0.352327    1.36320800   -0.48262300
Se    8.58058000    6.99292000   12.43317000     -0.184506    0.51874900   -0.11683400
Se    7.81238000    9.93414000    0.10572000     -0.214466   -0.24287900    0.55037100
Se    5.81267000   11.48937000   13.83325000     -0.082023   -0.12278600    0.71626700
Se    5.69077000   20.29053000    2.28812000      0.239960    1.23209700    0.14719300
Se    8.95718000   18.20253000   10.98650000      0.322331    0.33661100    0.26924500
Se   11.80162000    1.72326000    0.68254000      0.449638    0.68142400    0.16710400
Se   13.18038000    1.96974000   13.86637000     -0.045450   -1.16790000   -1.24650300
Se   12.21592000    7.13233000   18.36484000      1.030733    1.21508600   -0.47518400
Se   10.26765000    9.81873000   10.27037000     -0.538276    0.05931600   -0.41652500
Se   13.44370000   14.47811000    1.91589000     -1.800948    0.00402800    1.35628100
Se   12.68025000   10.78772000    7.76160000     -0.198167   -0.11569800    0.06129500
Se   14.32251000   17.39791000    2.43890000     -0.305106    0.01509000   -0.35751800
Se   13.08638000   17.28692000   10.06764000     -0.457447    0.28642900   -0.73547200
Se   18.70953000    4.06138000    2.77092000     -0.035645   -0.20958400    0.17623200
Se   16.11640000    1.59926000   13.55227000      0.942366    0.01148600   -0.63859000
Se   15.65364000    8.33815000   18.24557000      0.265536   -0.10648000    0.45666300
Se   17.71690000    5.46500000   12.54965000      0.932979   -0.49648200   -0.78073400
Se   19.17372000    9.40692000    0.77113000     -0.632448    0.35278800   -0.46661500
Se   16.59582000   14.97826000    6.85827000      0.598179   -0.38146800   -0.02674600
Se   20.66409000   20.23479000    0.86695000      0.613702   -0.42784300   -0.44468200
Se   16.68001000   19.09118000    7.48247000     -0.073441    0.03469100    0.78461700
Se    1.34364000    0.86699000    1.75502000      0.224695    0.14647600    0.05706400
Se    6.24742000    7.63984000    9.71281000     -0.683241    0.60723900    0.13343400
Se    6.55032000   10.28448000    2.13970000     -0.321386    0.57612200   -0.27898000
Se    4.48086000   11.05577000    9.90387000      1.003139    0.44545900   -0.49050600
Se    2.96756000   15.31971000    1.23934000     -0.053401   -0.53399100    0.27704500
Se    2.86580000   13.23851000   12.47229000     -0.472185   -0.68782200   -0.30477200
Se    3.79271000   21.48994000   17.86700000     -0.634694    0.50639400    0.62892700
Se    5.80469000   20.35882000   10.41125000     -0.297183   -0.10020800   -1.56406600
Se   11.89480000    4.72798000    3.08778000     -0.646826    0.38648800   -0.09693000
Se    7.54678000    4.58981000    7.45375000     -0.625642   -0.33828600    0.00804600
Se   11.69415000   10.91983000    1.46527000      1.010881   -0.61302300    0.35148400
Se    6.83125000   10.48460000   10.68426000     -0.664160    0.18093700   -0.52664700
Se   10.00541000   15.56458000    1.74230000     -0.699072    0.11801100    0.21604600
Se   12.68532000   12.46432000   12.21149000     -0.720831    0.45613300    0.26500400
Se   10.17791000   21.54626000   17.97685000      0.116802    0.00649600    0.12071500
Se    8.26979000   22.24669000   12.11638000      0.246414   -0.32318500   -0.03475600
Se   14.70173000    5.47446000    0.44705000     -0.062629   -1.24296100   -0.51168900
Se   16.33681000    6.64434000    8.79106000      0.727317   -0.92952400    0.00714100
Se   15.16385000   10.58718000    0.10975000      0.177979    0.07502300   -0.52574100
Se   14.84905000   12.38072000   13.17754000      1.665996   -0.85094100   -0.57373900
Se   18.77567000   14.78093000    2.94525000     -1.095808    0.67300000   -0.74117000
Se   16.47744000   11.20623000    9.78397000     -0.716298    0.65308500    0.40899200
Se   17.81386000    0.14417000    0.17280000     -0.555851   -0.15746600    1.14336200
Se   15.16787000   20.97258000    6.59214000      0.591822   -0.58520300    0.77079900
Se    0.13111000    4.19930000    1.31002000     -0.446909   -0.33000600    0.45416400
Se   21.16738000    4.28495000   10.83148000      0.086278    0.09410200   -0.15397600
Se   21.22597000    5.94805000    0.27824000      0.478624    0.07820000    0.03343200
Se   20.94331000   11.14037000   12.80192000     -0.632769   -0.30185300   -0.95122300
Se   18.92651000   14.62396000   18.30757000      0.473690    0.14835400    0.15735800
Se   21.44880000   16.32933000   12.02607000     -0.465083    0.51130400    0.89130300
Se   21.27450000   21.90102000    3.98759000      0.308427    0.71910000   -0.00141400
Se   17.85105000   20.97715000   11.15429000     -0.722967   -0.27513000   -0.93360400
Se    3.61928000    5.52777000    8.90861000     -0.162599   -0.14376600   -0.15648400
Se   21.91437000    3.06320000   17.96491000     -0.345766   -0.38270300   -0.89784100
Se    2.29144000    9.52901000    8.15993000      0.239112    0.69137400    0.13157500
Se    1.31228000   10.71846000   17.16656000      0.318176   -0.94302000    0.69414600
Se    4.02599000   18.00914000    7.88356000      0.375744   -0.83405700   -1.96628800
Se    0.09132000   18.13544000   15.08958000      0.193837   -0.53622800    0.63355700
Se    0.79476000   19.04791000   12.82873000      0.321378   -0.63877900   -0.68941000
Se    1.56220000   20.35987000   17.71123000      0.295411    0.60650600   -0.68784900
Se    4.18750000    4.23166000    5.35121000      0.456770    0.08837800    0.72968800
Se    4.94483000    6.06586000   18.32141000      0.342503   -0.49770500   -1.22172300
Se    4.68989000    9.44841000    5.58001000      0.936648    0.51778600    0.79009900
Se    3.32933000    6.59144000   16.36499000     -0.106795    0.72413000    0.61085500
Se    6.69290000   14.28644000   12.13047000     -0.134231    0.60191800   -0.49490100
Se    6.82251000   17.08339000   17.86370000      0.181130   -0.50161000    0.11109900
Se    9.38513000   18.36670000    6.39092000      1.213694    0.44088100    0.27774500
Se    6.12660000   19.65199000   17.87105000     -0.304111    0.40154300   -0.61194200
Se   10.08580000    2.21692000   10.47055000     -0.472758    0.22973600   -0.02942800
Se   12.51098000    3.89348000   16.93396000     -0.783726    0.63654600    0.22293200
Se   13.38794000    7.13363000    7.25718000      1.383739   -1.49317300   -0.76675600
Se   14.01974000   10.73646000   16.78972000     -0.237014    0.61983200   -0.24064000
Se   11.50736000   14.05337000    7.55936000     -0.607124    0.31185300    1.46726300
Se   13.81738000   15.74063000   17.29881000      0.449266   -0.97638200    0.29193600
Se   12.40300000    1.22089000    7.88333000     -0.302000   -0.56702300   -0.13767600
Se   13.95824000   21.71995000   18.28846000      0.288122    0.55247700   -1.03586600
Se   13.83995000    4.18556000   10.35126000     -0.606663   -0.27022000    0.33355800
Se   20.67473000    2.26005000   15.71109000      1.140525   -0.30325500    0.44004000
Se   18.73923000   10.94893000   10.41463000      0.696778   -0.02925800    0.78972600
Se   17.29096000   10.55210000   15.44125000     -0.141268   -0.06079900   -0.67371100
Se   13.82842000   16.26852000    6.21902000      1.443937    0.25295800    0.27345600
Se   20.26446000   13.50284000   14.48032000      0.551878   -0.93722100    0.20071000
Se   19.09704000   21.44073000    8.18793000      0.221463    0.11750500   -0.06773000
Se   18.70399000   18.55042000    2.52030000     -0.318299    1.01556800    0.51551700
Se    4.88023000    1.29428000    8.78111000      0.661692    0.74325900   -0.67537500
Se    3.27201000    3.27684000   18.46005000     -0.192531    0.29798400   -0.07378800
Se    9.65805000    9.89015000    6.84992000     -0.572647    0.16686500   -0.10194900
Se    3.85610000    9.82911000    0.16562000      0.360445   -0.39872500    0.06828800
Se    6.60407000   16.63324000    5.31388000      0.169276    1.04033500    1.24976700
Se    4.65190000   12.69762000   18.23371000      0.078242   -0.27671600   -0.35320400
Se    1.50722000   19.88964000   10.34495000      0.803868    0.38082100   -0.17644100
Se    2.96020000   18.19732000    1.60944000     -0.674278    0.05544800    0.07093400
Se    8.06501000   22.44707000    7.84434000     -0.312160   -0.42126700    1.01863500
Se    8.36623000    3.53441000    0.60483000     -0.040715   -0.32230800    0.42515500
Se   10.07926000    5.42273000    8.94187000      0.570098    0.07019800    0.42944300
Se    8.47704000    6.85181000   18.38769000     -0.122078   -0.86206200    1.68174800
Se    7.99879000   11.83971000    5.33388000      0.108179    0.05153100    0.70318500
Se    7.34616000   14.47096000   17.26273000      0.541291    0.47126100    0.09282200
Se   11.34328000   21.41372000   10.76047000      0.727647   -0.28734600   -0.29927700
Se   10.90311000   13.75830000   17.96060000      0.098833    0.24664900   -0.15997100
Se   16.51418000    0.30908000    7.85199000     -0.073953   -0.02017900   -0.18464400
Se   15.80933000    3.12096000    0.07462000     -0.338560    0.33377700    0.54460600
Se   16.25780000    4.11018000    7.65623000     -0.157331    0.56646400    0.20253000
Se   14.78679000    6.69360000   15.79822000     -0.332170    1.66010600    0.88051900
Se   15.76953000    9.06057000    8.87380000      0.197883   -0.56929100    0.43622900
Se   14.59205000   13.69014000    0.20599000      1.155767   -1.38952900   -1.40011500
Se   13.22542000   18.54467000    5.57858000     -0.830082    0.25301400    0.33457900
Se   17.40616000   17.60650000   18.77760000     -1.062412    0.28506900   -0.56103600
Se   20.90881000    1.76545000    8.56028000      0.248077    1.29409300    0.22831500
Se    0.87126000    0.08807000   13.64964000      0.111126    0.61330000   -0.19725000
Se   19.93539000    8.00022000    9.93604000      0.053494   -0.39621800   -0.33207200
Se   22.22095000    7.04318000   17.04455000     -0.539542   -0.16567000   -0.50755300
Se   21.15032000   11.56712000    7.11147000      0.581667   -0.31434600    0.24641400
Se   20.45957000   11.52687000   16.91441000      0.119001   -0.23465600    0.47566000
Se   19.03588000   17.21318000    8.31734000     -0.062278   -0.29788300   -0.76861100
Se   19.85590000   17.41599000   15.58383000     -0.317153   -0.96150700    0.08868100
Se    3.75671000   22.06163000   12.49113000     -0.781223   -0.43279900   -0.61015600
Se    2.63737000    1.90356000   14.77835000     -0.740807   -0.97720700   -0.05765300
Se   21.99513000    7.71569000    8.34158000      0.718855   -0.02895400    0.77844500
Se    0.69656000   10.43053000   14.96369000      0.206708   -0.07014700   -0.16803400
Se    3.96446000   14.87833000    6.11003000     -0.046729   -0.25837800   -0.15847000
Se    2.45487000   13.95223000   16.78273000     -0.368639   -0.25463100   -0.76740200
Se    0.04979000   17.24783000    7.71273000      0.009076   -0.30576300    0.10755200
Se    2.64544000   19.92840000   14.10129000      0.421803   -0.51678000    0.59747200
Se    6.72868000    0.93395000    3.03360000      0.352451   -1.23781200   -1.01298400
Se    7.22764000   22.20142000    0.82833000      0.447752    0.71850000    0.54838500
Se    9.22969000    7.55473000    6.76612000      0.416276    0.05192500   -0.26842500
Se    4.08147000    3.78336000   15.50283000      1.304795    1.33351400   -0.21088500
Se    5.39138000   12.10381000    4.50676000      0.205911    0.47038800    0.55463400
Se    9.76939000   13.44174000   14.18035000      0.227167   -0.35093100    0.03691100
Se    7.89907000   17.97324000    3.83176000      0.423772    0.18504300   -0.35068000
Se    8.30378000   16.92298000   14.66519000     -1.125251   -0.56335100   -1.21681600
Se   14.15631000   22.35276000    4.88764000     -0.015693    2.30579900   -1.09157300
Se   13.58419000    0.98434000   16.39592000     -0.012981   -1.39362200    0.87429300
Se   12.71257000   10.07115000    5.22210000     -0.320344    0.04113700   -0.32004200
Se   11.17164000    5.95321000   13.65873000      0.457186    0.48838200    0.16621800
Se   13.92817000   12.85992000    5.70148000      1.079804    0.07691100   -0.68783600
Se   12.87540000   14.39719000   15.00985000      0.306924    0.32922300    0.31354500
Se   11.66325000   18.80411000    7.62021000     -0.615178    0.02781900   -0.66632000
Se   11.91592000   18.47293000    1.65395000      0.603952    0.19927000   -0.13705000
Se   19.45916000    1.74085000    5.76808000      0.224796    0.21508500   -0.48423200
Se   18.95634000    0.98293000   16.79838000     -0.025790    0.27185300   -0.28918500
Se   19.89562000    5.16632000    6.87173000     -0.120269    0.36708300   -0.13334600
Se   18.98465000    5.86184000   16.10052000      0.185469    0.04210400   -0.37376600
Se   19.17876000   12.08796000    4.31177000     -0.128234   -1.06218600   -0.37240900
Se   17.36217000   14.84659000   13.44654000      0.762662    0.02345600   -0.31084200
Se   17.31312000   18.65875000    5.18121000     -0.039651   -0.10416700   -0.71797900
Se   16.93085000   19.97463000   16.15396000      0.218216    1.67867000    0.04857100
Se    2.12299000    7.53182000    5.25252000      0.217050   -0.46223000   -0.07777200
Se    2.44044000    6.50681000   13.87396000     -0.958310    0.24831400   -0.40028100
Se    1.05543000   11.93007000    4.51883000      0.292734   -0.82271100    0.59556000
Se    3.70736000   10.73168000   15.13809000      0.837867    0.35355200   -0.24587400
Se    5.99066000   14.16726000    7.76629000     -1.031435    0.44173600   -0.38555400
Se    3.32602000   17.63788000   17.54064000     -0.460690    0.40012700   -0.15241800
Se    2.30483000   20.26662000    7.20784000     -0.344388    0.52427400   -0.39474800
Se    6.32040000   21.90165000   14.59567000     -0.208979   -1.95127500    1.33000600
Se    8.92720000    0.54309000    5.57778000      1.168376    0.52351300   -0.39809000
Se    6.98593000    2.02388000   17.82832000      0.587930   -0.17897300    0.25112000
Se   13.31068000   11.41194000   10.02633000      0.531732    0.05410500   -0.05317500
Se   10.46358000   10.12511000   17.25401000     -0.854309    0.37835900   -0.57873400
Se    8.17663000   13.50193000    8.41269000      1.045606   -0.81965000    1.47492900
Se   11.71768000   16.64424000   14.19719000     -0.208105    0.47868600   -1.58065900
Se   12.16839000   21.05196000    4.40469000     -1.404600   -0.98791300    0.52978600
Se   10.31937000   17.77879000   16.93343000      0.977671   -1.12880100    1.70834500
Se   11.26073000    4.54343000    6.62172000     -1.103499    0.43577700    0.46608700
Se   17.52498000    4.29077000   17.18221000      1.924430    0.67031000    0.61504600
Se   17.00161000    8.19629000    5.00041000     -0.665342   -0.74792700    0.19713200
Se   16.20903000    8.10894000   13.22338000      0.409007    0.03417800    0.20318800
Se   17.58380000   10.86237000    5.63655000      0.116331   -0.09106500    0.30961200
Se   14.36140000   17.61294000   16.20033000      0.324847    1.26362700   -0.62538200
Se   15.22844000    2.33319000    4.90325000      1.100065   -0.48350500   -0.41519100
Se   18.76093000    2.49144000   13.09472000     -0.902239    0.76484400   -0.32509800
Se    0.97355000    3.25010000    5.76685000     -0.911512   -0.02448600    0.09114600
Se    0.76982000    4.33114000   15.92746000     -0.639163   -0.05324200   -0.05998200
Se   18.21460000   13.57923000    8.14126000      0.141423    0.30991400   -0.06735100
Se    0.03573000   12.96074000   13.36198000      0.136769    0.70148700    0.09821300
Se   20.32300000   14.89903000    5.25421000      0.300965    0.00981100    0.78097200
Se   19.51965000   19.55497000   13.36449000      0.089774   -0.38710600    0.65403600
Se   21.34493000   19.41520000    7.95981000     -0.622054   -0.71477000    0.74444600
Se   21.52031000   20.40302000   16.44751000     -0.170311    0.32238900   -0.74472500
Se    4.45257000    0.87913000    4.31524000      0.586810   -1.00226700    1.64906200
Se    7.14578000    1.69780000   15.02168000      0.169507    1.19544100    0.18867800
Se    2.34773000    6.28255000    0.98290000     -0.442236    0.54995500    0.51869900
Se    5.09919000    7.65418000   12.01966000     -0.351113    0.13687900   -0.19755100
Se    1.34436000   13.60580000    1.83387000      0.377050    0.45061800   -0.35921400
Se    5.26670000   15.65666000   15.15868000     -0.364926   -0.79150600   -0.47856400
Se    5.33544000   18.01843000    2.21083000     -0.130799   -1.09016900    0.36769600
Se    5.16809000   17.91175000   12.17926000     -0.483983    0.08370300   -0.94073000
Se   10.09512000    1.03001000    3.22820000     -0.437812   -0.94603300    0.09205900
Se   10.81196000    1.13349000   16.85716000      0.279258   -1.14584400    0.18206800
Se   10.40329000    7.21958000    2.22066000     -1.953465   -0.43158500    1.00434500
Se    7.30425000    8.23043000   15.74607000     -0.175071   -0.15570200    0.02149300
Se   10.82497000   11.49053000    4.17902000     -0.717873   -0.87961500    0.06976100
Se    9.57000000   11.75672000   12.09309000      1.206088   -0.50805900    0.75557400
Se    9.12682000   20.49120000    1.78077000      0.310264   -0.38371900    0.17953100
Se   15.66603000   17.83751000   12.56322000     -0.749190    0.39635600    0.63706700
Se   13.53227000    3.63068000    5.93001000      0.504851    0.19249300    0.44801500
Se   16.05654000    1.06903000   15.88721000      0.216808   -0.68972900    0.26099400
Se   15.98763000    5.71090000    4.45617000      0.434510    1.00940100   -0.00835000
Se   13.69921000    8.74426000   11.28587000     -0.744161   -0.34409900   -0.10796600
Se   15.97980000   11.16007000    2.92422000     -0.167227    0.10596800   -0.15129200
Se   16.77339000   13.99186000   16.32311000     -0.140523    0.20791200    0.22149000
Se   16.11347000   15.43525000    3.83186000      0.175809    0.00178400   -0.58437400
Se   14.64907000   21.19742000   12.95508000     -0.102424    0.47768200   -0.01789500
Se   22.41712000   20.97311000    6.65592000      0.835807    0.03464500   -0.49170900
Se   19.83686000    0.49814000   13.37151000      0.051832   -0.76048700   -0.11857000
Se   21.43177000    6.82115000    4.01572000      0.146135   -0.43433200    0.37890700
Se   19.53703000    8.13843000   14.13734000     -1.135339   -0.85920600    0.08718700
Se   22.52197000   14.01634000    5.86521000      1.127793    0.14168500   -0.01063900
Se    0.99550000   15.04880000   14.62134000      0.036650    0.25307900    1.12459300
Se   21.12509000   17.55471000    4.29246000      0.477476    0.23946600   -0.10122500
Se   21.75186000   21.59335000   10.72432000     -0.751756   -0.94575600    0.21070100
Se    2.55737000    4.43150000    3.68992000     -0.280535    0.35891300   -0.99769200
Se    2.43759000    3.08950000   11.78260000     -1.395385    0.16201400   -0.30178800
Se   21.62868000   10.89593000    2.07602000      0.646953    0.24426900   -0.37102900
Se    1.51599000    9.50188000   11.48622000     -0.028487   -0.16287100    0.59564700
Se    0.04263000   16.48742000   18.08338000     -0.233943    0.40232500    0.53533100
Se    3.69509000   16.23101000   12.86632000     -0.099396   -0.25151200    0.66725200
Se    1.51469000   20.87554000    2.45122000      0.133094   -1.09838200    0.05949500
Se    4.92134000   19.34403000   15.65261000      0.621987    0.10667700    0.21601800
Se    8.40021000    4.22697000    4.42239000     -0.172544   -0.03121000    0.49484200
Se    9.96417000    3.25055000   14.41382000     -0.573283   -0.10948200   -1.18369500
Se    5.67560000    6.06225000    4.68855000     -0.047742    0.72322300    0.18620800
Se    8.40196000   11.26539000   15.85809000      0.144974   -0.33250400    0.01728500
Se    6.28198000   14.61558000    1.94221000     -0.371427    0.46670200   -1.08556900
Se   10.45923000   14.99388000   11.05022000      1.180184   -2.19532500   -1.16156600
Se    5.33647000   21.00688000    5.95077000      1.217410   -0.32854300    1.11765900
Se   10.18849000   20.42321000   14.68544000      0.491564   -0.20262100   -0.44235000
Se   13.32081000    3.09879000    2.31713000     -0.196757   -1.48447200    0.01739500
Se   11.50903000    5.95248000   11.01931000     -0.241875   -0.02439700   -0.57939600
Se   14.17506000    8.53541000    2.94098000     -0.325247   -0.42615800    0.16029500
Se   11.23814000    9.55656000   14.36287000     -0.153359   -0.14322500   -0.08704500
Se    8.61414000   14.15085000    4.41183000      0.055653   -0.22140900    0.30922500
Se   14.95996000   14.14175000    9.71085000     -0.116734   -0.10869300    0.30853800
Se   15.06022000   20.60507000    1.91456000     -0.412645   -0.93717100    0.68021200
Se   13.77569000   19.29637000   14.14307000     -0.547782    0.38441700   -0.50476000
Se   18.64823000    5.62463000    0.93492000      0.168098   -0.38868900    0.49048100
Se   14.83040000    5.17077000   14.13637000     -0.170618   -1.12162300   -0.86125800
Se   19.35398000    8.24155000    2.80547000     -0.032403    0.17870000    0.52483000
Se   20.43781000   14.83164000   10.51895000     -0.526351   -0.70295300    0.77666000
Se   21.10465000   15.05692000    2.26212000      0.403768   -1.57293600   -0.24773000
Se   17.74807000   17.58857000   11.50927000      0.997213    0.23234400   -0.88852100
Se   17.95752000   22.47393000    4.28925000     -0.279076   -0.48610900   -0.69703900
Se   16.50295000    1.09464000   10.54728000      0.159934    0.51534200   -0.21373600
