384
22.54784000 22.54784000 18.93360000
Ge    6.04735000    5.26412000    9.29268000      0.435255   -1.20261400    0.98081100
Ge    4.51200000    7.50704000    1.37457000     -0.069848    0.89334400   -0.49862500
Ge    3.78155000   11.70936000    6.99039000     -0.100500   -0.31454000   -0.53214100
Ge    5.94481000   10.52578000   17.09796000     -0.207617   -0.02587500    0.02645100
Ge    4.20331000   13.73804000    9.82699000      0.678581    0.08564100    0.71160600
Ge    8.92516000   17.73403000    0.40676000      0.226316   -0.10630400    0.26709800
Ge    6.26382000   18.81311000    8.18360000      0.512624    0.93569900    0.20544500
Ge    4.85044000    1.57127000   16.52785000      0.103458   -0.08406600   -0.32117900
Ge    8.72779000    7.71248000    9.99026000      1.063875   -0.88791400   -0.22368700
Ge   10.79196000    5.33109000    0.06598000     -0.679450   -0.74195400    0.60610500
Ge   12.44581000    8.52827000    8.94077000     -0.849187    0.47624300    1.30698800
Ge    9.67887000   11.53532000    0.35296000      0.045675    0.85848200   -0.81609900
Ge   10.06959000   16.50795000    9.19773000      0.125368    0.79481100   -0.93919100
Ge   11.81741000   16.21101000   18.81435000     -0.644481   -0.72510000    0.15417700
Ge    9.33520000   22.35567000    9.93215000      0.111905    0.70544600    0.04287000
Ge   14.14120000    0.45849000    1.46287000     -0.084374    0.33228700   -0.47229500
Ge   19.09039000    5.55530000   10.17348000     -0.698945    0.01338300   -0.15987700
Ge   17.87623000    8.52131000   16.76490000      0.205600   -0.16035500    0.38533900
Ge   17.77553000   15.07093000   10.99590000     -0.216076   -0.13805700   -0.18772000
Ge   17.86632000   11.94696000   17.24041000      0.421474   -0.61419600    1.45913100
Ge   13.35344000   15.31597000    8.52603000     -0.376443    0.50099300   -0.18493500
Ge   16.59427000   15.26086000    0.85421000      1.203980    0.79344700    0.44334600
Ge   15.99843000    3.42627000    9.93653000      0.838737   -0.60646400    0.47033200
Ge   19.06394000    3.01367000    0.27236000     -0.315710    0.07329200   -0.20462700
Ge    1.64645000    4.28242000    9.88342000      0.767201    0.14684400   -0.10950800
Ge   21.01854000    3.54903000    4.25435000     -0.059541    0.21726300    0.20691200
Ge    0.42725000   10.74800000    9.51776000      0.088686    0.01010700    0.03219600
Ge   21.67620000    9.43129000   18.41549000     -0.385451    0.85314600    0.20597800
Ge   20.47536000   15.10124000    7.81132000     -0.222306   -0.01337200   -0.05163800
Ge    4.34091000   15.42027000   17.64942000      0.283550    0.12524100   -0.07590800
Ge   19.29163000    0.68461000   10.26224000     -0.016096   -0.84685700   -0.11597500
Ge   21.72030000   19.64318000    3.01251000      0.817340    0.28083700    0.29988300
Ge    4.17509000    7.08683000    6.64207000      0.151746    0.42027700   -0.02153500
Ge    1.68906000    7.99432000   18.00445000      1.750421    0.02448300    0.01755800
Ge   21.01636000   10.06484000    4.58121000     -0.499032    0.40183900   -0.75264700
Ge    3.88016000   13.44566000   14.68129000      0.505146   -0.32239200    0.44588600
Ge    4.40590000   17.73851000    4.75391000      0.740822    1.33776100   -0.49360100
Ge    0.57792000   18.69748000    0.47195000     -0.205104    0.14124900   -0.30693700
Ge    3.51426000   18.39092000    9.98117000     -0.971998    0.37506600    3.51385500
Ge    2.14429000    1.21092000   17.92880000     -0.481758   -1.52911100   -0.33324700
Ge   10.06325000    2.54930000    7.49470000     -0.030450   -0.04883500    0.26027700
Ge    6.90454000    5.89193000   16.73627000     -0.312965    0.11085800   -0.33525600
Ge    8.34197000    9.78919000    3.92467000      0.833048   -0.03163900   -0.29672200
Ge    9.90279000    7.57250000   16.63313000      0.795868    0.72432600   -1.40769700
Ge    7.57161000   15.48811000    9.95952000     -0.642370    0.19787600   -0.57105700
Ge    9.54276000   15.03373000   16.11754000     -0.367479   -0.43302300    0.64711200
Ge   10.84056000   21.66461000    6.93355000     -0.055476    0.09427100   -0.18881800
Ge   10.81275000    1.07578000   13.42947000     -0.204199   -0.50452100    0.19705300
Ge   11.84760000    7.55094000    5.41386000     -0.553633   -0.15535300   -0.69856900
Ge   15.51287000    3.38349000   16.42280000     -1.563405    0.45664600   -0.07501900
Ge   15.01569000    9.09226000    6.46823000      0.265566   -0.19421500   -0.32318000
Ge   14.77550000   12.86117000   15.64359000     -0.048352    0.21758600    0.25035800
Ge   12.31538000   14.56333000    5.31745000     -1.859431    0.07322300   -1.33004600
Ge   14.64817000   18.69338000    0.11173000      0.633530   -0.24023400    0.50024700
Ge   14.41665000   22.18148000    8.78959000     -0.550343   -0.50646500    0.32283300
Ge   17.61788000   21.45317000   13.56270000      0.054878    0.62253600    0.76897200
Ge   22.14083000    4.54325000    8.31195000     -1.016325   -0.64342300   -0.54514300
Ge   20.03366000    5.43212000   13.73635000     -1.084311    0.69843000    0.57088400
Ge   18.97320000   10.90963000    7.97222000     -0.090646    0.05147800   -1.59428200
Ge   20.89846000   15.03746000   16.71481000      0.489518    0.50581700   -0.13770300
Ge   18.42345000   16.56666000    5.80757000     -0.482368    0.00199700    0.67673000
Ge   17.07890000   17.71449000   16.05254000      0.363079   -1.34073100    0.46500000
Ge   22.11458000    1.20292000    6.45292000      0.144772   -0.40924300   -0.08335200
Ge   18.94725000   21.03342000   17.63119000     -0.021554   -0.24175600   -0.34871700
Ge    6.32012000    2.42758000    6.72187000     -0.058801   -0.23906200    0.45622500
Ge    4.37691000    2.63525000   12.99610000      1.712215    0.08744900    0.67429200
Ge    0.63140000    9.65409000    6.36242000     -0.106344    0.14836200   -0.49815700
Ge    2.68892000    7.14410000   11.43209000     -0.198748    0.03100400   -0.07664000
Ge    0.72305000   15.66748000    3.91093000     -0.582821   -0.47246400   -0.07410100
Ge    2.54044000   17.20111000   15.19476000     -0.090376    0.28954800   -0.50258300
Ge    3.60881000   21.88608000    9.90752000     -0.373504   -0.43171800    0.50257600
Ge    8.35998000   18.85594000   16.13949000     -0.988414    1.50583900   -0.71217700
Ge    6.68818000    3.43022000    2.42246000     -0.407205   -0.15471000    0.21357900
Ge    9.54606000    3.28691000   16.84649000     -0.003654    0.18050400    0.37458300
Ge    8.51897000    6.96866000    4.31777000     -0.186948    0.07607500   -0.35704600
Ge    7.87230000    9.31024000   13.50277000     -0.079073    0.64031400   -0.09275900
Ge    5.78604000   14.62854000    4.25116000     -0.127048   -1.50402900    1.81514600
Ge   12.19610000   12.06267000   14.60938000     -1.689800   -0.58135800    0.32764400
Ge    7.43813000   20.58182000    4.52821000     -0.087502   -0.09422200   -0.92855500
Ge    9.58431000   16.35183000   12.60511000      0.187930    1.70703100    1.89815300
Ge   12.24986000    1.75688000    4.52447000      0.989247    0.33482500   -0.02578600
Ge   12.50543000    4.13292000   14.50817000      0.008552    0.98359300    0.56674500
Ge   17.79894000    3.76836000    5.52194000     -0.210698    0.45213200   -0.02193700
Ge   14.17825000    9.34541000   14.38217000      0.054469   -0.51322200    0.09366800
Ge   15.04342000   13.30279000    3.43023000     -0.840927    0.21913100    1.15610400
Ge   13.15876000   15.52305000   11.76568000      0.142721   -0.22832800    1.11980700
Ge   10.79602000   18.63889000    4.28131000     -0.346152   -0.00873100    0.00589600
Ge   12.08174000   19.57858000   17.11358000     -0.206623    1.14204900   -0.36034700
Ge    0.13283000    6.31960000    6.14060000     -0.144988   -0.75102800   -0.28116100
Ge   22.12117000    3.91068000   13.33834000      0.618045    0.23936300    0.64055800
Ge   19.94789000    8.01839000    7.15385000     -0.979117   -0.55439400    0.13028900
Ge   17.05037000   10.14529000   12.32557000      0.021202    1.02778800    0.26626300
Ge   20.15495000   16.62081000    0.69642000     -0.234367    1.00509200   -1.14959500
Ge   19.74723000   15.65069000   13.83296000     -0.598236    0.93939200   -0.70188300
Ge   19.42136000   20.56434000    5.06309000     -0.764399    0.01292500    0.49438800
Ge   21.62657000   20.63851000   13.71974000     -0.123637    0.97251900    0.23535900
Ge    3.02850000    2.05411000    3.10592000     -2.053189    1.70580700   -1.08914100
Ge    5.88195000    0.46801000   12.49997000      0.718269    1.17479300   -0.61083900
Ge    3.77593000    8.57784000    3.56727000     -0.656211    1.03176200    0.02475700
Ge    6.79437000    4.32569000   14.60763000     -0.512560   -0.67308200   -0.28610000
Ge    4.47767000   12.68103000    1.79899000     -0.385053   -0.27505300   -0.07251200
Ge    3.80774000   10.42462000   12.28093000     -0.412372    0.02082300    0.49297900
Ge    3.46576000    0.23618000    6.96333000     -0.086588    0.59101000   -0.00525700
Ge    7.15911000   19.84342000   12.45867000      0.609759    0.06501100    0.36789000
Ge    9.68589000    3.29698000    2.77328000      1.382105    0.75732300   -1.56515800
Ge    9.26625000    4.41383000   11.91140000     -0.151514    0.24599600   -0.20291300
Ge   12.25349000    8.41202000    1.61105000     -0.427453    0.73039200   -0.60327100
Ge   10.98570000    8.54539000   12.20436000      1.063266   -0.87159300   -0.01511300
Ge    8.53078000   13.44891000    2.05139000      0.309824    0.55686100   -0.18692900
Ge    7.75274000   12.66618000   10.91673000      0.908345   -1.28584500   -1.55697600
Ge   11.79078000   21.08829000    1.76433000     -0.544297    0.04695300   -0.41826200
Ge   11.40920000   19.43927000   12.54261000     -0.160928   -0.34345000    0.90683400
Ge    0.29450000    0.07517000   15.94229000     -0.395393    0.39169300    1.13524800
Ge   12.47756000    1.56914000   10.79591000      0.194628   -0.08116100   -0.50265200
Ge   15.92332000    7.06802000    1.88231000      0.994136   -0.48887500    0.28987100
Ge   15.27893000    6.20308000   11.70762000     -0.370927    0.40688100   -0.88713900
Ge   18.06462000   11.83630000    1.61562000      0.468093    0.00701500    0.10059300
Ge   16.53536000   16.99449000    9.08755000      0.061471   -0.49965600   -0.11931200
Ge   17.38224000   20.98993000    2.10814000      0.920958    0.18417900    0.53729200
Ge   15.21386000   19.87172000   10.87344000      0.565153   -0.03670000    0.46092100
Ge   21.45508000    1.27360000    2.21471000     -0.505371    0.38681900    0.15506200
Ge    0.25843000    1.19168000   10.51014000     -0.113189    0.82014400   -0.03897900
Ge   22.47960000    7.76580000    1.81798000      0.177520    0.03985100    0.52195700
Ge   21.57065000    8.99812000   13.78716000      1.118209   -0.10117500   -0.38484500
Ge   20.56662000   12.97714000    0.68746000     -0.311776   -0.24403900    0.49107300
Ge    0.24871000   15.12745000    9.39184000      0.577827    0.24241800   -0.38731800
Ge    3.37601000   20.31265000    4.79855000     -0.267675   -0.60807400   -0.71636200
Ge   20.08286000   19.43246000   10.93495000     -0.622413    0.18038500   -0.21506400
Se   21.54373000    0.47418000   18.72523000     -0.089402   -0.12621100    0.65272200
Se    1.46849000    1.21635000    8.31252000      0.767502    0.07744000    0.16278400
Se    2.11321000   10.70373000    2.45790000      0.297893   -0.71558600    0.38340200
Se   22.52264000    6.63422000   12.76317000      0.732323   -0.36306400    0.45539800
Se   22.44320000   13.14883000   18.10884000     -0.025393   -0.05146900   -0.27323500
Se    1.88351000   12.96621000    9.70843000     -1.089157   -0.52145700   -0.72424000
Se    2.20893000   17.17436000    5.01730000     -0.925622    0.25908500    0.39491300
Se    2.25424000   16.34333000   10.68605000      0.146476   -0.22995700   -0.31287200
Se    4.46817000    2.17872000    1.19841000      1.007406   -0.14749700   -0.50977200
Se    6.57545000    3.89626000   11.48913000     -0.104738    0.42602800   -0.56280500
Se    6.31831000    5.81646000    2.22215000     -0.346174    1.22730300   -0.57826100
Se    8.59107000    6.96062000   12.42281000     -0.260450    0.83110100   -0.12907000
Se    7.78725000    9.95647000    0.16776000     -0.140305   -0.45508500    0.29054300
Se    5.81738000   11.43554000   13.85400000      0.089648    0.10650600    0.63001800
Se    5.72031000   20.32868000    2.30752000      0.074228    0.53103500    0.11045800
Se    8.98471000   18.24207000   10.96814000      0.338556    0.16069700    0.49317200
Se   11.73482000    1.69353000    0.66801000      0.535545    0.61918500    0.13342600
Se   13.21931000    1.96500000   13.94275000     -0.372676   -0.77812400   -1.25093300
Se   12.21106000    7.11940000   18.37360000      0.991336    1.31997900   -0.47106000
Se   10.22866000    9.83203000   10.21579000     -0.419005    0.19851600   -0.25811400
Se   13.44998000   14.52865000    1.91507000     -2.464542    0.39706300    2.24634700
Se   12.67076000   10.73886000    7.74541000     -0.179239    0.18370300    0.21310700
Se   14.31162000   17.41241000    2.43779000     -0.338427    0.10135300   -0.41937500
Se   13.09013000   17.25843000   10.04649000     -0.417098    0.57629400   -0.90080800
Se   18.69626000    4.07666000    2.74142000     -0.021205   -0.11546600    0.13460400
Se   16.14242000    1.60653000   13.56099000      0.902940    0.16497600   -0.82360100
Se   15.67603000    8.34453000   18.29679000     -0.000788    0.06234600    0.43289300
Se   17.73778000    5.49050000   12.56766000      0.833491   -0.56205300   -0.92848200
Se   19.21593000    9.41981000    0.76544000     -0.780790    0.48528800   -0.60541400
Se   16.55982000   14.92915000    6.87983000      0.496412    0.00133100   -0.24491100
Se   20.69451000   20.24327000    0.91642000      0.396605   -0.36620200   -0.89389600
Se   16.75234000   19.05043000    7.52621000     -0.265925    0.69855000    0.34187800
Se    1.33642000    0.78069000    1.83570000      0.078573    0.20515300   -0.13969500
Se    6.31543000    7.66563000    9.67902000     -0.949006    0.24744700   -0.00455600
Se    6.56690000   10.29141000    2.18994000     -0.291684    0.49049400   -0.05565300
Se    4.51405000   10.99875000    9.90982000      0.662201    0.47879600   -0.71446000
Se    2.99269000   15.26272000    1.27318000      0.004411   -0.57641000    0.26715000
Se    2.83273000   13.22418000   12.46062000     -0.175003   -0.60792100    0.02934300
Se    3.84542000   21.49172000   17.85754000     -0.914219    0.44273700    0.51484700
Se    5.78726000   20.42370000   10.38450000     -0.002882   -0.47039300   -1.41059900
Se   11.89770000    4.72353000    3.12650000     -0.845031    0.71706800    0.03162400
Se    7.56279000    4.53783000    7.46896000     -0.723521   -0.45756400   -0.06179900
Se   11.67970000   10.94226000    1.49490000      0.942544   -0.74756600    0.20542800
Se    6.79412000   10.47924000   10.71658000     -0.271866    0.43508300   -0.53306000
Se    9.99003000   15.57762000    1.69876000     -0.845129    0.01037800    0.37913700
Se   12.67576000   12.49345000   12.20648000     -0.373292    0.30520900    0.08402000
Se   10.13727000   21.53681000   17.98640000      0.078693    0.06002300    0.10500000
Se    8.24733000   22.30556000   12.08134000      0.084450   -0.42851700    0.26709700
Se   14.73746000    5.48112000    0.41681000     -0.096674   -1.12666700   -0.53354400
Se   16.32555000    6.60335000    8.78913000      0.769825   -0.72398100    0.13737100
Se   15.11142000   10.62442000    0.16684000      0.258557   -0.04399200   -0.60018300
Se   14.86291000   12.41649000   13.22372000      1.365130   -0.84504900   -0.77177500
Se   18.79115000   14.77222000    2.93745000     -0.993523    0.64666200   -0.89016700
Se   16.44887000   11.26657000    9.74109000     -0.479183    0.22203900    0.38990200
Se   17.75851000    0.13035000    0.18863000     -0.385052   -0.20460100    0.80959400
Se   15.18629000   20.89340000    6.58662000      0.426846   -0.19540300    0.44298200
Se    0.13631000    4.14764000    1.27554000     -0.253336   -0.32408900    0.66712500
Se   21.23217000    4.32541000   10.84471000     -0.051667    0.05416700   -0.25575700
Se   21.25192000    5.97606000    0.27219000      0.191795   -0.30208900   -0.05943500
Se   20.93182000   11.15258000   12.82664000     -0.400252   -0.71848100   -0.81797800
Se   18.95273000   14.62427000   18.30417000      0.246859    0.16291300    0.19347200
Se   21.41615000   16.29512000   12.01473000     -0.257669    0.67868800    1.05496900
Se   21.25638000   21.88359000    3.97449000      0.408524    0.40432200   -0.05748500
Se   17.83566000   21.01168000   11.16464000     -0.564124   -0.46089600   -1.23855500
Se    3.65687000    5.52081000    8.87905000     -0.435913   -0.14425600   -0.17593000
Se   21.90919000    3.01967000   18.00914000     -0.352712   -0.44330300   -0.91122500
Se    2.25260000    9.57095000    8.19708000      0.273292    0.63534100   -0.35137700
Se    1.26073000   10.75530000   17.19188000      0.331989   -0.96834100    0.71783400
Se    3.99763000   18.05417000    7.84786000      0.532571   -0.94648400   -2.22215300
Se    0.06326000   18.15242000   15.10219000      0.258508   -0.53884600    0.53071600
Se    0.75994000   19.05546000   12.81049000      0.624646   -0.91259900   -0.83616200
Se    1.58533000   20.35801000   17.68807000      0.480158    0.62041400   -0.49950700
Se    4.15217000    4.29463000    5.40052000      0.280091   -0.23481600    0.68541700
Se    4.92557000    6.04485000   18.32018000      0.509321   -0.32749300   -1.08419400
Se    4.77096000    9.43830000    5.61700000      0.673756    0.49715400    0.60157900
Se    3.34334000    6.58921000   16.39579000     -0.130223    0.76160200    0.50384300
Se    6.70288000   14.23603000   12.10693000     -0.674022    1.47830100    0.27137800
Se    6.79951000   17.09646000   17.92693000      0.224367   -0.50736700   -0.03838300
Se    9.34924000   18.38786000    6.46426000      1.335962    0.50985500    0.10956100
Se    6.18863000   19.62017000   17.92691000     -0.293287    0.41315200   -0.71388200
Se   10.04248000    2.22379000   10.50871000      0.082770   -0.21919200   -0.15171700
Se   12.44898000    3.88641000   16.95048000     -0.882910    0.68673300    0.05110500
Se   13.38805000    7.14460000    7.27324000      1.148825   -1.03785300   -0.57572200
Se   14.04545000   10.75927000   16.78296000     -0.328517    0.33074900   -0.07421400
Se   11.50368000   14.05401000    7.58533000     -0.504629    0.28565800    0.92851800
Se   13.79291000   15.73158000   17.33253000      0.562420   -0.55489300    0.07131300
Se   12.44120000    1.17012000    7.86084000     -0.384920   -0.29598500   -0.07933500
Se   13.93415000   21.75706000   18.30176000      0.339011    0.37320500   -1.02042900
Se   13.85187000    4.13896000   10.35890000     -1.074720   -0.05219400    0.43510500
Se   20.67879000    2.34022000   15.68899000      0.994342   -0.45217800    0.47046100
Se   18.73531000   10.98126000   10.39723000      0.412194    0.06688300    0.92638800
Se   17.29960000   10.57950000   15.38548000     -0.204136   -0.55656400   -0.80951100
Se   13.79839000   16.25409000    6.18159000      1.676540    0.46361600    0.56744900
Se   20.23976000   13.47083000   14.47923000      0.772932   -0.74210600    0.29921200
Se   19.10183000   21.41352000    8.18604000      0.179876    0.18882500   -0.00332300
Se   18.70321000   18.55386000    2.50807000     -0.375310    0.91094800    0.64435300
Se    4.86344000    1.36489000    8.82760000      0.650436    0.62358400   -0.76169200
Se    3.26325000    3.27745000   18.43596000     -0.026009    0.78040000    0.07163800
Se    9.70080000    9.84345000    6.81531000     -0.527913    0.82246300    0.01061100
Se    3.88236000    9.86608000    0.20824000      0.328223   -0.51122800    0.01167300
Se    6.62376000   16.66509000    5.30725000     -0.143079    0.00945700    1.37291500
Se    4.65394000   12.72315000   18.15482000      0.119456   -0.23901100   -0.07113500
Se    1.45754000   19.86715000   10.34743000      0.926561    0.34525200   -0.12986400
Se    2.92727000   18.15954000    1.63309000     -0.424540    0.12902500    0.06436300
Se    8.06691000   22.43266000    7.83793000     -0.425466   -0.49870500    1.18530000
Se    8.32388000    3.52101000    0.57919000      0.100294   -0.26386700    0.53940800
Se   10.06622000    5.35930000    8.84491000      0.763971    0.25070100    0.62369900
Se    8.45607000    6.84618000   18.31491000     -0.048421   -0.81569800    1.96449400
Se    8.00868000   11.78634000    5.30337000      0.142469    0.20310000    0.85154400
Se    7.35123000   14.44300000   17.22002000      0.479257    0.43054300    0.19270100
Se   11.39215000   21.43993000   10.71747000      0.554130   -0.35807000   -0.15059600
Se   10.94895000   13.70392000   18.01827000      0.066832    0.16214300   -0.33136600
Se   16.52468000    0.30896000    7.91832000      0.081247    0.00591700   -0.22026200
Se   15.76846000    3.08504000    0.03603000     -0.261526    0.21803800    0.72552400
Se   16.25068000    4.05674000    7.70528000     -0.100012    0.74488600   -0.44223900
Se   14.74765000    6.71621000   15.77523000     -0.239234    1.14984800    0.38253400
Se   15.79890000    9.03391000    8.89059000      0.053406   -0.36750800   -0.07478700
Se   14.62755000   13.74318000    0.29363000      1.556984   -2.03267800   -2.26149800
Se   13.20587000   18.53923000    5.58477000     -0.769366    0.15265200    0.29983600
Se   17.46288000   17.58350000   18.74044000     -1.150502    0.36110200   -0.53958400
Se   20.97151000    1.75792000    8.55968000     -0.064393    1.27596100    0.34538700
Se    0.87570000    0.09455000   13.64184000      0.112645    0.50599600   -0.16955700
Se   19.89617000    7.97702000    9.96096000      0.117759   -0.11565900   -0.30190300
Se   22.22565000    6.96922000   17.07799000     -0.335473   -0.14759000   -0.70864500
Se   21.19003000   11.56417000    7.18346000      0.451085   -0.27393900    0.12376300
Se   20.44950000   11.54348000   16.92555000      0.122062   -0.25696100    0.45550500
Se   19.00053000   17.16121000    8.32719000      0.128416    0.12177300   -0.91216800
Se   19.83751000   17.40018000   15.53342000     -0.350365   -0.83238000    0.40630800
Se    3.78133000   22.06447000   12.50395000     -1.582260   -0.83802200   -0.81503900
Se    2.62812000    1.89477000   14.72785000     -0.766999   -0.76312200    0.23015900
Se   22.00824000    7.70712000    8.38098000      0.546249   -0.03202300    0.46658400
Se    0.69418000   10.44068000   14.98746000      0.226737   -0.13136100   -0.16492600
Se    3.99511000   14.91878000    6.17997000     -0.148962   -0.22393600   -0.21856300
Se    2.47832000   13.92153000   16.75948000     -0.392546   -0.15661300   -0.74440000
Se    0.02873000   17.27250000    7.69844000     -0.102324   -0.26872100   -0.02171100
Se    2.68730000   19.90253000   14.07932000      0.322253   -0.58922000    0.69941000
Se    6.74194000    0.97080000    2.96939000      0.444016   -1.45180700   -0.78046100
Se    7.23227000   22.22539000    0.80057000      0.396425    0.62627500    0.39181900
Se    9.28726000    7.55774000    6.77009000      0.366451   -0.46388600   -0.30873200
Se    4.10352000    3.82133000   15.52860000      1.231560    1.03973700   -0.48121500
Se    5.42984000   12.10845000    4.52625000     -0.100099    0.37026400    0.55107400
Se    9.73673000   13.39948000   14.20195000      0.334212   -0.31100800   -0.07398300
Se    7.85022000   17.94546000    3.84180000      0.690947    0.53094300   -0.72040800
Se    8.31271000   16.93543000   14.66097000     -1.182415   -0.46181600   -0.90632300
Se   14.11738000   22.45796000    4.87319000      0.347034    1.60642500   -0.60831900
Se   13.61477000    1.00226000   16.42722000     -0.282816   -1.39902900    0.79893800
Se   12.69041000   10.03362000    5.25137000     -0.030419    0.22192700   -0.50729500
Se   11.13307000    5.93828000   13.63938000      0.505116    0.63747900    0.06633200
Se   13.93802000   12.91914000    5.65981000      1.486809   -0.64810300   -0.41642900
Se   12.84778000   14.37802000   15.02501000      0.348224    0.80738000    0.41785700
Se   11.65455000   18.80645000    7.59352000     -0.718982    0.01783700   -0.54882400
Se   11.92970000   18.47413000    1.62414000      0.605836    0.29365900    0.02411300
Se   19.49165000    1.71446000    5.84528000      0.066772    0.29970700   -0.54427500
Se   19.01141000    1.00612000   16.81883000     -0.233201    0.31487300   -0.27375800
Se   19.90653000    5.13233000    6.89095000     -0.154083    0.40721200   -0.15276900
Se   18.98989000    5.85483000   16.07699000      0.103398    0.02561200   -0.25520300
Se   19.15418000   12.08560000    4.31914000     -0.147422   -1.05052400   -0.34461600
Se   17.40794000   14.85773000   13.45456000      0.465750    0.05052600   -0.22591900
Se   17.30789000   18.63560000    5.15224000     -0.215619    0.09475500   -0.71364400
Se   16.92170000   20.02657000   16.19561000      0.246750    1.51110200    0.08939300
Se    2.13532000    7.54717000    5.21698000      0.083984   -0.34742100   -0.06386800
Se    2.47045000    6.50570000   13.88792000     -0.890927    0.22062400   -0.33586600
Se    1.09325000   11.92172000    4.51869000      0.230521   -0.78829300    0.65428000
Se    3.73582000   10.70918000   15.06982000      0.621570    0.22068000    0.06347500
Se    5.96867000   14.22232000    7.74402000     -0.770150    0.34191700   -0.36647900
Se    3.34713000   17.73421000   17.53972000     -0.486335    0.25205700   -0.18094900
Se    2.29705000   20.33429000    7.17111000     -0.297622    0.22001700   -0.07301200
Se    6.23258000   21.94008000   14.58545000     -0.100497   -1.62127400    1.20101700
Se    8.91442000    0.54422000    5.61021000      1.144543    0.59348200   -0.52072000
Se    6.99552000    1.97348000   17.86102000      0.512181   -0.17485800    0.19714200
Se   13.30920000   11.35566000   10.02566000      0.453443    0.05163100    0.13286500
Se   10.39964000   10.09342000   17.21526000     -0.736971    0.66732900   -0.28628500
Se    8.20945000   13.50861000    8.44931000      0.695822   -0.66892700    1.50923600
Se   11.78207000   16.70040000   14.19164000     -0.471103    0.20817600   -1.59375600
Se   12.14806000   21.03879000    4.43049000     -1.223093   -0.93449900    0.38830500
Se   10.32913000   17.79901000   16.92491000      1.239961   -1.38762200    1.77646200
Se   11.30238000    4.54564000    6.60582000     -1.300671    0.63618700    0.49882900
Se   17.51289000    4.31720000   17.19793000      1.865727    0.61714500    0.47114700
Se   17.00066000    8.17259000    5.02925000     -0.562970   -0.74221200   -0.01497300
Se   16.25900000    8.08979000   13.22076000      0.085203    0.22944700    0.23171200
Se   17.52670000   10.87334000    5.61926000      0.256212   -0.07260700    0.35719200
Se   14.29762000   17.66610000   16.24420000      0.271764    0.80193300   -0.43060600
Se   15.25515000    2.35180000    4.93740000      1.109914   -0.60115600   -0.51049700
Se   18.76299000    2.50734000   13.08810000     -0.940203    0.54051900   -0.33884100
Se    0.92195000    3.20792000    5.83658000     -0.780826    0.27399600   -0.02443100
Se    0.78533000    4.32269000   15.91964000     -0.576239   -0.01260700   -0.15188800
Se   18.17129000   13.59329000    8.11132000      0.348060    0.17919500    0.11545100
Se    0.05073000   12.96345000   13.35641000      0.021559    0.59708700    0.04747900
Se   20.29362000   14.91943000    5.26300000      0.143651    0.13900400    0.63185000
Se   19.47206000   19.58670000   13.40825000      0.187685   -0.61330300    0.25435800
Se   21.38005000   19.37057000    8.06440000     -0.174381   -0.17375600    0.12520300
Se   21.49336000   20.38950000   16.40880000     -0.168125    0.24547500   -0.57136900
Se    4.45548000    0.91804000    4.30379000      1.080975   -1.47402600    2.18234100
Se    7.14713000    1.68666000   15.00450000      0.306797    1.08836100    0.21656200
Se    2.36053000    6.28901000    1.00195000     -0.533064    0.60009300    0.43940100
Se    5.11791000    7.65982000   11.97316000     -0.311347    0.22209000    0.02669700
Se    1.31002000   13.63022000    1.84546000      0.295947    0.31437600   -0.28086500
Se    5.27109000   15.68908000   15.10971000     -0.323092   -0.72543600   -0.33342200
Se    5.32996000   17.98729000    2.17981000     -0.247353   -0.37972900    0.48287400
Se    5.17210000   17.97458000   12.20241000     -0.835516   -0.26725200   -0.92553200
Se   10.07220000    1.04188000    3.25271000     -0.362343   -0.95399700    0.05236100
Se   10.78021000    1.10803000   16.85147000      0.320065   -1.03704000    0.17611300
Se   10.31410000    7.20183000    2.24050000     -1.227381    0.02616100    0.69195700
Se    7.29904000    8.25954000   15.64690000     -0.212795   -0.45444200    0.64542900
Se   10.85490000   11.49955000    4.19757000     -0.878683   -0.94250000    0.11296200
Se    9.57678000   11.72065000   12.08983000      0.780482   -0.17848500    0.37834000
Se    9.09474000   20.47773000    1.74899000      0.461035   -0.39644400    0.22749800
Se   15.68994000   17.85088000   12.56857000     -0.248397    0.45616200    0.22345100
Se   13.52885000    3.64079000    5.92535000      0.617350    0.13909600    0.42809600
Se   16.06887000    1.08137000   15.86807000      0.591564   -1.14743900    0.49753400
Se   16.03184000    5.68968000    4.46936000      0.399732    0.92634200    0.04636500
Se   13.77032000    8.74012000   11.23644000     -0.759385   -0.14347400   -0.06097200
Se   15.92039000   11.17630000    2.92975000      0.173142   -0.17541500   -0.28305600
Se   16.85932000   13.91825000   16.35109000     -0.724224    0.76996500   -0.07237900
Se   16.11872000   15.42200000    3.78397000      0.454126    0.25408000   -0.55395900
Se   14.65871000   21.18957000   12.95389000     -0.094883    0.46978500   -0.15078100
Se   22.51213000   20.97105000    6.66075000      0.115488   -0.28131400   -0.15940600
Se   19.90459000    0.55058000   13.38778000     -0.030150   -0.62532700   -0.12399400
Se   21.41276000    6.76232000    4.06441000      0.049998   -0.34541200    0.10337800
Se   19.49452000    8.13582000   14.16573000     -0.669232   -0.69588300   -0.06099400
Se   22.49763000   14.04921000    5.85570000      1.169948    0.14629000   -0.17716900
Se    1.04336000   15.02105000   14.66672000      0.081855    0.29729800    1.07992500
Se   21.06852000   17.56511000    4.31191000      0.416769    0.06654700   -0.05524500
Se   21.69904000   21.62442000   10.68710000     -0.826893   -1.08602500    0.22312500
Se    2.53990000    4.39765000    3.70029000     -0.252280    0.26631900   -0.94583600
Se    2.47269000    3.09118000   11.76376000     -1.677587    0.16209200   -0.44637400
Se   21.62835000   10.84875000    2.08412000      0.770753    0.30804100   -0.42082800
Se    1.53063000    9.47902000   11.49074000     -0.037168   -0.14241500    0.64271500
Se    0.12812000   16.48525000   18.04631000     -0.480917    0.37463200    0.50885700
Se    3.71664000   16.17135000   12.82554000      0.228068    0.25426800    0.68030800
Se    1.50233000   20.89534000    2.44517000      0.316477   -1.04499600    0.02454700
Se    4.95034000   19.34038000   15.63585000      0.520216    0.08918300    0.19679800
Se    8.40505000    4.18078000    4.42982000     -0.864286    0.38992400    1.31980400
Se    9.91692000    3.27944000   14.36875000     -0.561538   -0.35017700   -0.48396700
Se    5.62921000    6.07665000    4.71767000      0.205796    0.62013400    0.09064000
Se    8.40384000   11.24848000   15.82966000      0.094951   -0.36074100    0.06866200
Se    6.26908000   14.56151000    1.99270000      0.136477    0.72809700   -2.37369800
Se   10.48945000   15.00758000   11.00516000      1.197894   -2.28977300   -0.67045000
Se    5.37357000   21.00715000    6.00361000      1.313589   -0.30766100    1.25384300
Se   10.23767000   20.43142000   14.66688000      0.234367   -0.21537400   -0.34772900
Se   13.30616000    3.16893000    2.29223000      0.110327   -1.73264500   -0.12164100
Se   11.59181000    5.99748000   11.05140000     -0.455362    0.07709700   -0.58926300
Se   14.18564000    8.54291000    2.93783000     -0.349541   -0.47054200    0.24380500
Se   11.22795000    9.53290000   14.42381000     -0.016542   -0.14797200   -0.45769800
Se    8.53517000   14.16346000    4.42640000      0.211214   -0.32561600    0.28453500
Se   15.00530000   14.17307000    9.70290000     -0.136703   -0.17311900    0.44771400
Se   15.02073000   20.61056000    1.94782000     -0.391277   -0.82793000    0.51087400
Se   13.76164000   19.29460000   14.12575000     -0.377865    0.30285400   -0.59690100
Se   18.64983000    5.69460000    0.92502000      0.043718   -0.59375800    0.58527600
Se   14.81922000    5.12960000   14.08334000     -0.066018   -0.41235700   -0.07974100
Se   19.40340000    8.27364000    2.80073000      0.070043   -0.02420400    0.58216000
Se   20.37951000   14.88211000   10.46875000     -0.384981   -0.93495700    0.64362600
Se   21.15003000   15.08563000    2.25361000      0.299043   -1.79036100   -0.04913600
Se   17.80113000   17.58316000   11.43357000      0.301752   -0.04386700   -0.69978000
Se   17.94754000   22.50531000    4.28002000     -0.243134   -0.46928200   -0.63664100
Se   16.47503000    1.08461000   10.50960000      0.300297    0.66641200   -0.19566700
