384
22.54784000 22.54784000 18.93360000
Ge    5.35870000    3.92621000   10.96642000     -0.228443    0.39519900    0.00903300
Ge    4.72841000    6.95532000    1.72531000     -0.357638   -1.19685400    0.61178900
Ge    4.08311000   11.29171000    7.75061000      0.352565   -0.66378100   -0.83168000
Ge    6.65250000    9.97552000   17.80932000      0.018533    0.08880500   -0.83923500
Ge    4.67230000   14.72058000    8.94511000      0.855793    0.54995200    1.02256900
Ge    8.23953000   17.21218000    1.02202000     -0.758127    0.00842300    0.32508000
Ge    8.40867000   19.35203000    8.56037000     -0.669947   -0.18955400   -0.08185300
Ge    5.34390000    0.42761000   18.79777000     -0.957597    1.06087700   -0.24849400
Ge    7.74334000    5.20522000    9.35278000      1.435403    0.90728200    0.96345400
Ge   11.57178000    5.55924000   18.09067000     -0.794993    0.99030100    1.27403600
Ge   11.88668000    7.42783000    8.90540000     -0.371883   -0.29409000    0.43484300
Ge   10.37461000   12.34316000    0.21952000      0.906611    0.29813500   -0.05121200
Ge   10.08627000   16.76307000    8.91549000      0.169395   -1.09538600   -0.14305900
Ge   12.20567000   15.85582000    0.66669000     -0.212339   -0.00984100    1.11844600
Ge   10.22447000    0.10785000   10.38984000      0.631630    0.58333700   -0.72745300
Ge   15.55416000   21.46819000    0.26496000      1.417977   -0.94162200    0.23874800
Ge   17.63708000    5.25202000   10.02249000      1.359688    0.08393300    0.28840100
Ge   18.51594000    7.14878000   18.01824000     -0.443377   -0.29438600    0.49391100
Ge   18.92170000   14.74807000   10.79147000      0.158035    0.32630900    0.27178800
Ge   18.68374000   11.36055000   17.77700000     -1.626093    0.24664500    0.25065400
Ge   13.89470000   17.00889000    8.86283000      0.381828    0.44027500   -0.06655200
Ge   16.78154000   14.68827000    0.31936000      0.477047    0.79779800    0.80197000
Ge   16.17351000    3.47472000    8.85163000     -1.113271    0.99624600    0.90255400
Ge   19.11406000    3.75537000    0.26094000      0.341618    0.63471200   -0.93185700
Ge    0.67857000    5.28129000   10.40005000      1.090928   -0.29281200   -0.27316200
Ge   21.89548000    4.65332000    3.00007000     -1.960156   -0.02467600    0.19860500
Ge    0.63975000   10.36065000    9.34474000      0.059932    0.07197000    0.00499200
Ge   21.43133000    9.18779000   18.14318000      0.058243   -0.37585200    0.63185200
Ge   21.24720000   15.33821000    9.05423000      0.195877    0.34367500    0.24914100
Ge    3.98142000   15.52604000   17.71455000      0.106994   -2.34586200    0.25946500
Ge   18.74543000   22.36986000    9.93196000     -0.052397   -0.70362200   -0.02850100
Ge   20.54694000   20.71366000    1.03559000      0.649556   -0.17149900    0.40327600
Ge    2.27104000    6.32286000    8.21051000     -0.134048    0.00281200   -0.28211500
Ge    1.81567000    7.09438000   16.95756000     -0.632188   -0.17210300   -0.24439500
Ge   20.53596000    8.84977000    5.09548000     -0.184001   -0.19870600   -0.09102100
Ge    3.57404000   12.99130000   15.29532000      0.658936   -0.94392400    2.50943400
Ge    5.35838000   18.99645000    4.72823000     -0.394251   -0.75860600    0.31964600
Ge    0.40384000   18.31242000   18.05916000     -0.512144    0.28582500    0.03866400
Ge    4.31748000   19.43297000   10.29503000     -0.427193    0.13156500   -0.25904600
Ge    2.63073000    1.66976000   17.10425000     -0.904364    0.24989300    0.42705800
Ge    9.87345000    3.69211000    6.88545000     -0.547974   -0.12193200   -0.96895400
Ge    7.05121000    6.32842000   16.15427000     -0.482912    0.20660200   -0.51809100
Ge    8.12054000   11.36470000    4.15833000     -0.386264   -0.20434800   -0.39183300
Ge    9.99157000    8.26802000   17.12956000     -0.719685    0.07410200    0.08476400
Ge    6.43197000   17.35737000    8.28793000      0.151101    1.18540900   -1.49267000
Ge    9.51427000   15.67301000   16.30775000      0.339821   -0.39383800   -0.19710200
Ge   10.22547000   21.46226000    6.45575000      0.095463    0.21243900   -0.58909300
Ge    9.93881000   21.11666000   14.33313000      0.040745   -0.29651700    0.42819300
Ge   12.24873000    6.84683000    4.94999000     -0.534534   -0.08796600    0.13732500
Ge   15.21029000    5.22977000   15.52764000      0.481715    0.13977600    0.65853900
Ge   13.80527000   10.75015000    6.60518000     -0.280317   -0.16427100    0.56241400
Ge   14.96064000   11.59611000   15.89959000      0.238264   -0.10748900   -0.17750100
Ge   12.84737000   14.99721000    5.60554000     -0.875358    1.44199000    0.40036300
Ge   14.66668000   18.15349000   18.87915000      0.391473    0.25839900    0.01541700
Ge   13.72263000    0.34315000    9.99167000     -0.668318   -0.06410000   -0.93496800
Ge   16.69901000   22.42700000   14.31911000      0.579719   -0.48345100    0.55680200
Ge   20.06371000    4.97400000    8.92515000     -0.178661   -0.52189000   -0.26596000
Ge   21.30620000    6.13556000   13.46692000     -0.295137    1.20424500    0.65471900
Ge   17.79779000    9.95547000    7.92049000     -0.341128    0.14515000   -0.37922800
Ge   20.68760000   15.48650000   17.04542000      0.420973    0.67869000    0.60987600
Ge   19.78805000   14.83881000    5.16280000     -0.471112    0.65842700    1.04311900
Ge   17.16153000   18.10483000   16.44520000     -0.863357    0.16217100   -0.87356300
Ge    0.65350000    0.30201000    7.60872000     -0.193433    0.06188300   -0.54073400
Ge   18.70723000   20.61981000   17.13972000     -0.346164   -0.05085500   -0.72688800
Ge    6.65194000    2.45905000    6.87652000     -0.426386   -0.51666000   -0.15959400
Ge    3.10199000    3.60854000   13.88645000      2.115985   -0.71541900    0.10495900
Ge    1.55691000    8.64582000    5.86557000     -0.081048    0.42948900   -0.09930700
Ge    3.89329000    8.18320000   11.23124000     -0.067810   -0.00425500    0.15233900
Ge    0.82776000   15.53234000    4.51838000      0.529631    1.66012700   -2.04486100
Ge    2.95311000   17.10602000   15.17510000     -0.107717    0.80603000   -0.14446300
Ge    2.55270000    0.79960000    9.52269000     -0.276506   -0.06494400   -0.68738900
Ge    6.64249000   18.63708000   16.64517000      0.058198   -0.09780800   -0.83730300
Ge    7.69270000    3.88302000    3.15733000      0.263592    0.53658600    0.53188700
Ge   10.32954000    2.89703000   15.58602000     -1.319217    0.55827600    0.67147700
Ge    8.50704000    8.85215000    4.91201000      0.136670    0.16258800   -1.03137100
Ge    8.35828000   10.25369000   13.08821000     -0.815079   -0.47867300    0.67586200
Ge    6.79017000   14.74600000    3.76931000      0.659593   -0.76882700    1.88402100
Ge   11.78476000   12.42498000   15.53920000     -0.435842    0.53520400   -0.34253600
Ge    7.52721000   20.00796000    3.48480000      0.672679    0.01268300    0.63151300
Ge    9.23959000   16.65283000   13.40765000      0.460106    0.27259900   -0.38612600
Ge   11.87770000    1.49211000    5.25508000     -1.067315    1.46775600   -0.66124700
Ge   11.93708000    4.59430000   14.57126000      0.901721    0.03546200   -0.44127200
Ge   17.26206000    6.79555000    5.03497000      0.634461   -1.89654100   -1.48234300
Ge   13.04128000    8.42698000   14.45394000      0.938655   -0.17513900   -1.61294500
Ge   14.98991000   12.94403000    3.85666000      0.518522    0.55088700    0.03531500
Ge   13.09788000   15.94256000   12.87516000      0.274317    0.38540300    0.10154400
Ge   11.88488000   17.51652000    4.43029000      0.487487   -0.12457000    0.17394600
Ge   10.82733000   19.12839000   16.95997000      0.923730    1.37958200   -1.08907300
Ge   21.96458000    3.94302000    6.00958000     -0.119569   -0.16860800   -0.80124100
Ge   21.87048000    2.60606000   13.72964000      0.684834   -1.04901400    0.19955000
Ge   18.73502000    7.21203000    7.49557000      0.063350    0.28320900   -0.51556900
Ge   18.49531000   11.25656000   13.32724000      0.833239   -0.72509000   -0.89911900
Ge   21.16846000   16.98596000    1.72564000      0.167085    0.06459800   -0.49096700
Ge   18.49265000   15.43566000   14.38837000      0.069069    0.24053200   -0.12283000
Ge   19.32775000   19.73720000    4.94451000     -0.474814    0.21850800    1.18829700
Ge   22.43619000   20.58817000   13.74677000     -0.787665   -0.47053100   -0.48214200
Ge    3.93188000    3.55772000    3.01535000      0.901215    0.09883000   -0.21131600
Ge    5.91454000    1.92841000   12.59491000      0.757975   -0.26214600    0.62509600
Ge    4.72409000    8.26407000    4.48852000     -0.308266    0.23669000    0.26418400
Ge    7.06079000    5.48971000   13.60898000     -0.491757   -0.58329400    0.50095000
Ge    4.42189000   12.86835000    0.53528000      0.159168    0.06838800    0.21167100
Ge    3.87406000   11.64761000   11.94072000     -0.287010    0.23507600    0.51073700
Ge    4.66322000   22.23192000    5.12775000      0.843456   -1.21826300    0.35827200
Ge    6.96967000   19.91466000   12.17778000      0.534532   -0.39657000    0.04136000
Ge   11.57855000    3.62168000    3.40438000     -0.991887    0.65743100   -0.49565600
Ge    8.73543000    3.78488000   11.41418000     -1.305095   -0.91726100   -0.41038700
Ge   12.13855000    7.78976000    1.70576000     -1.364479   -0.39488900    0.13881100
Ge   10.63341000    6.96708000   12.60170000      1.958418    0.02671800    0.04658900
Ge    8.19860000   13.30475000    1.49683000      0.421870    0.32869600   -0.26149900
Ge    8.69786000   14.31130000   11.14465000     -0.215473    0.17176200    0.48883100
Ge   11.49193000   21.54765000    0.37941000      0.478875   -0.62539500   -0.50119000
Ge   11.13668000   19.60886000   12.41966000      0.214076   -0.15787000   -0.63526400
Ge   21.94146000    0.27026000   16.48457000      0.757527    1.64981400    0.85258100
Ge   12.73636000    2.76212000   11.45563000      0.292570    0.45643500   -1.10580800
Ge   16.27788000    8.88804000    1.26098000      0.305011   -0.21244200   -0.33056300
Ge   14.73779000    9.23952000   10.56159000      0.131407   -0.64524900    0.18527300
Ge   18.54196000   11.69633000    2.60563000     -0.319798    0.12467200    0.44661800
Ge   17.21839000   15.46900000    8.81120000     -0.193708    0.53165100   -0.56739300
Ge   17.25415000   20.38086000    2.98885000     -1.082325    1.24947900    0.97974600
Ge   15.15290000   19.77709000   10.88831000      0.060179    0.07265000   -0.59693100
Ge   21.48041000    1.35356000    2.05672000      0.090753   -0.98532500    0.28194100
Ge   21.21428000    0.91438000   10.63604000      0.083543   -0.53779400    0.08748800
Ge    0.83136000    8.38470000    1.96004000     -0.080423    0.25512900   -1.26590700
Ge   21.19643000    9.76987000   12.37491000      0.609038    1.24759500   -0.27071000
Ge   20.58993000   12.97729000    1.11879000      0.528664    0.13171100    0.41703500
Ge    0.80830000   13.89032000   10.79391000     -0.398273    1.48564800    1.00756200
Ge   22.44471000   19.62121000    4.38429000      0.268416   -0.00355800   -0.03439900
Ge   18.50131000   18.69486000   11.15388000     -0.958213   -0.13877600   -0.88427100
Se   20.36633000    0.59712000   18.69311000      1.224134   -0.17643600   -0.01415400
Se    1.14298000    2.55302000   11.17935000     -0.060209   -0.50270500   -0.72723000
Se    2.60778000    9.74879000    2.84974000     -0.187091   -0.15487500    0.27573300
Se   22.42296000    7.77023000   11.14496000      0.416186   -0.60258400    0.40748400
Se    0.68803000   12.10190000    0.58983000     -0.340420    0.35293900    0.27801700
Se    2.04589000   12.87521000    9.13434000      0.265765   -0.98881700   -1.07861200
Se    2.04516000   18.29669000    4.79327000      0.413961   -1.06895600    0.10132400
Se    1.76260000   16.43485000   11.12359000     -0.668916   -0.48816400   -0.09752400
Se    6.15767000    2.06949000    2.08436000     -0.275372   -0.60281200   -0.24621900
Se    7.26156000    1.68704000   10.58904000     -0.228785    0.14340000    0.09999600
Se    7.10957000    6.09589000    1.81430000      0.700776    0.04702100    0.46218400
Se    8.36555000    7.07956000   12.12829000     -0.373088    1.23920000   -0.30424800
Se    7.48744000   10.64288000    1.04051000      1.206453   -0.07226800    0.62841200
Se    6.53526000   13.35422000   12.88410000     -0.138473    0.11349000    0.07156600
Se    4.77570000   20.27841000    2.42230000     -0.339693   -0.65088700    0.58850300
Se    9.15011000   18.46510000   10.86997000     -0.290923   -0.01506000    1.02316900
Se   14.02911000    0.54241000   18.56200000     -0.910719    1.60607700    0.86237700
Se   11.34076000    1.38450000   14.01266000      0.742416    0.09017400   -1.18400000
Se   12.41918000    8.16760000   18.25754000      0.520210   -0.88545900    0.00028600
Se    9.37373000    8.78704000    9.51169000      1.145579    0.32888500    0.43896500
Se   13.30482000   13.74637000    2.21086000     -0.544746   -0.30297700   -0.47052200
Se   11.74764000   10.46608000    8.59773000      1.007002   -0.51885700   -0.51369300
Se   14.27044000   16.66412000    2.20085000     -0.251277    0.22379300   -0.28748600
Se   13.08465000   18.32013000   11.08439000     -0.840045   -0.95599500    0.11862600
Se   19.37066000    2.61339000    2.34005000      0.580590    0.29473100    0.37836600
Se   15.96620000    2.42529000   12.48725000     -1.290936   -0.36514300   -0.13924300
Se   16.30865000    7.81204000   17.28320000     -0.880479    0.51960400   -0.19530900
Se   18.36138000    5.70445000   12.45627000     -0.568634    1.54446900   -0.49189000
Se   18.75827000    9.32531000    0.51122000     -0.191123    0.39781800    0.04433800
Se   17.35604000   13.74433000    6.31005000     -0.041423   -0.31823200    0.23677800
Se   20.17454000   18.62293000   18.43804000      0.849711    0.07567200    0.75771500
Se   16.63908000   18.12501000    9.49610000      0.150576   -0.11549000   -0.30453000
Se    1.84631000    3.20517000    1.07136000      0.260611   -0.01504600    0.22032600
Se    5.98661000    6.56964000   11.14504000     -0.432929   -0.03055400   -0.65093700
Se    5.41596000   10.82395000    2.13330000     -0.557402    0.16355400   -0.18557900
Se    5.36384000   12.47619000    9.97507000      0.047765   -0.02944900   -0.46421900
Se    2.43034000   15.14626000    2.28630000     -0.571161    0.27497200    0.42473600
Se    2.46255000   13.45445000   13.39361000     -1.635658    0.73243100   -3.65856100
Se    2.70856000   21.86196000    0.66207000      0.177149    0.69711300   -0.09485700
Se    6.33807000   20.64573000    9.76613000     -0.199353    0.40676300    0.06232100
Se   12.53959000    5.11028000    1.65236000      0.165301    0.60681900   -0.54653700
Se    5.77593000    4.35471000    8.39769000     -1.434515   -0.44559000   -0.72612400
Se   12.01332000   10.56172000    1.20480000     -0.683989    0.30791800    0.54521000
Se    7.60878000   11.68287000   11.11536000      0.118657    0.30979700   -0.51452700
Se    9.80518000   15.66505000    2.00979000      0.928984   -0.53680900   -0.14389800
Se   12.59478000   13.21632000   11.60488000      0.422943   -0.23610500   -0.12830900
Se    9.29887000   21.43361000   17.89851000      0.001622   -0.64250500    0.03516400
Se    8.94557000   22.00784000   12.19573000     -1.490474    0.03958300    1.44228000
Se   15.74285000    4.68108000    0.08563000     -0.473957   -0.29188800   -0.36096100
Se   16.51788000    6.95477000    8.77335000     -0.482832    0.84806800    0.46969800
Se   15.64614000   10.54109000   18.14160000     -0.196965    0.02964200   -0.17438800
Se   14.60301000   10.38448000   12.82843000     -0.153760    0.51346700    0.21312600
Se   17.23352000   13.93663000    2.89012000      0.740765    0.22245000   -0.00550000
Se   15.15068000   13.03349000   10.96529000     -0.743714    0.53199100   -0.25345700
Se   18.04561000   21.82391000    1.21780000     -0.831710   -0.02081400   -0.24157100
Se   14.63815000   21.00934000    8.69552000      0.681519   -0.62257400   -0.13709400
Se   21.45001000    5.26454000    0.48536000     -0.056397   -0.71269400   -0.86235800
Se   21.56760000    4.22195000   11.92309000     -1.127982   -0.00837600   -1.08933300
Se   20.03049000    6.66502000    1.80868000      0.534956    0.38184300    0.74400600
Se   20.30114000   11.25910000   10.13575000      0.127597   -0.98519800    0.54973400
Se   19.47994000   15.32346000    0.47989000     -0.177425   -0.72422200   -0.39921800
Se   20.60158000   15.69363000   12.75521000     -0.186844    0.88765900   -0.16854100
Se   20.57028000   21.84382000    3.70583000      0.311553    0.84534800   -0.87917700
Se   17.32925000   20.88718000   11.60271000      0.902806    0.32559300    0.31441100
Se    2.72090000    3.68798000    8.28458000      1.403260    1.52384200    2.33067400
Se    0.59908000    3.58539000   16.73862000      0.242604   -0.60186800    0.86460100
Se    3.53633000    8.89338000    8.71256000     -0.368010    0.67843400   -0.03438900
Se    1.12334000    9.50114000   17.28291000      0.756696   -0.19587700   -0.44227000
Se    3.99938000   18.07282000    8.41351000     -0.118755   -0.28253200   -0.92276100
Se    0.33783000   17.69209000   15.10255000      0.349919   -0.61817800    0.46027400
Se    2.16005000   20.64912000   12.44058000      0.633082   -0.53536000    3.22491600
Se    1.48880000   20.67532000   17.47226000      0.186173    0.78514000    0.85671100
Se    5.50584000    3.98541000    5.21433000      0.620903   -0.02942600   -0.30682700
Se    5.64376000    4.70304000    0.39907000     -0.647014    0.17877300    0.33957300
Se    6.36763000   10.27528000    6.37547000     -0.862164   -0.25683700   -0.02056300
Se    4.19431000    7.63431000   16.72214000      0.688021   -0.49160600   -0.71742000
Se    6.27314000   16.42597000   10.34672000     -0.010803   -1.53667800    1.73013100
Se    6.60468000   15.63862000   17.98703000      0.040946    0.47428000   -0.28098900
Se   10.32453000   17.92501000    6.49112000      0.337221    0.27180800    0.08375300
Se    6.15440000   20.81964000    0.36090000      0.446335   -1.27471700   -0.63894000
Se   10.56668000    2.46704000    9.74913000      0.231457   -0.55825100    0.37464600
Se   12.84599000    4.03864000   16.91307000      1.088898   -0.79214000   -0.10450100
Se   13.57557000    8.09622000    6.71952000      0.096986   -0.50368400    0.74863400
Se   12.66328000   10.07566000   16.13613000      0.398122    0.55891900    0.82466000
Se   12.29620000   15.33951000    8.14930000     -0.314862   -0.38733900   -0.39130800
Se   14.62915000   14.48754000   17.19827000     -0.564414    0.41039300   -0.39060200
Se   12.42242000    0.16994000    6.96179000      0.683326   -1.59017500    2.45855100
Se   15.35541000   20.11809000   17.11962000     -0.319487   -0.19890400    0.58954900
Se   13.77596000    4.34660000    9.21409000      0.454673   -0.40046300    0.75854800
Se   20.26153000    2.07504000   15.42160000     -0.047558    0.07191000    0.66023600
Se   18.79457000    8.97199000   10.06947000      0.423850    0.60850100    0.31598600
Se   17.44399000   10.89638000   15.37798000     -0.326202   -0.28641200    1.23144100
Se   15.58053000   16.38441000    6.78432000      0.434708    0.27052700    1.04474200
Se   19.49248000   13.67104000   16.10302000     -0.024455   -0.54449100   -0.41559900
Se   18.59626000   20.30622000    8.01632000     -0.096325    0.43064500   -0.11591900
Se   18.63871000   18.42691000    2.74538000      0.890223    0.50541500   -2.17583500
Se    4.55759000    0.49998000    7.41994000      0.614013    0.72249000   -0.06659600
Se    4.21683000    3.57069000   17.46397000     -0.165395   -0.02490400   -0.47786200
Se    7.69936000    7.60501000    8.64059000     -1.589367   -0.19599800   -0.70058000
Se    4.84754000    8.53849000   18.80944000     -0.412221    0.89218300    0.21266300
Se    6.22176000   16.00305000    5.84443000     -0.343254    0.13789900    0.59600500
Se    5.27030000   11.90545000   17.26451000     -0.122485   -0.03216600    0.11621100
Se    1.86313000   20.98223000   10.34295000      0.026749   -0.30309800   -3.65049700
Se    0.29048000   19.40848000    1.69267000     -0.224363    0.05130600    0.12501000
Se    8.91552000   21.89235000    8.56380000     -0.805844    0.36910500   -0.29841500
Se   10.02750000    3.17331000    1.29237000      0.097580   -0.17759300    0.48999300
Se   10.24630000    5.36493000    8.62531000      0.736939    0.59692400    0.17818200
Se    8.82338000    5.76917000   17.74199000      1.222270    0.60798000    0.39964200
Se    9.07527000   12.06681000    6.24911000      0.239313    1.25940900   -0.05159500
Se    8.10541000   13.70087000   17.48754000     -0.096271    0.10129500    1.09753000
Se   11.82071000   20.93761000   10.19736000      0.095866    0.07156800    0.47334100
Se   11.80890000   14.34565000   17.69916000     -0.992888   -0.51620300   -0.36169100
Se   15.76060000    1.86692000    7.28345000      0.149456   -1.84767900   -1.13421300
Se   16.65994000    2.78412000   17.92044000     -0.214505    0.07978600    1.59859700
Se   15.71290000    5.14709000    6.70862000      0.001133    0.84903700    0.99178300
Se   15.48823000    7.67335000   14.68717000      0.165057   -0.44782800    1.31452800
Se   15.40556000   10.85276000    8.67683000      0.561785    0.06366900    0.13833200
Se   14.72143000   12.94784000    0.11426000     -0.090817   -0.78568600    0.36119000
Se   14.01800000   18.70865000    5.50498000     -0.852138   -0.13962600    0.58649300
Se   17.09395000   17.66158000   18.79405000      0.243480   -0.66464400    0.86570300
Se   20.63547000    0.59050000    7.93918000      0.530702    0.50759300    0.07443000
Se    0.53188000    0.37336000   13.08547000     -0.118044    0.77897500    0.31122700
Se   20.97900000    7.41035000    8.86986000     -0.690649    0.18527600   -0.12647000
Se   20.12805000    7.80693000   16.32129000      1.135321   -0.07781600    0.64945300
Se   22.15857000   10.25295000    7.15510000      0.424017   -0.48473500    0.01970000
Se   21.06776000   11.62559000   17.72935000      0.808661   -0.37994900   -0.74509900
Se   19.40629000   16.54298000    7.79203000     -0.262937    0.04539500    0.31546600
Se   19.46933000   17.41593000   15.73863000      0.750662   -0.84165100    0.08532100
Se    3.73972000    1.86217000   11.33451000     -0.356276   -0.50099000    0.14699800
Se    2.83994000    0.40872000   14.84155000     -1.057627    1.22466500   -0.45509600
Se   22.28892000    6.22443000    7.13065000      1.386950    0.25514500    0.28946400
Se    1.37548000    9.76437000   14.37704000     -0.562658   -0.48881400   -0.48580400
Se    2.84238000   14.71631000    7.32090000     -0.691767    0.72631000   -0.15764400
Se    1.68911000   13.89043000   16.86196000     -0.400422    0.28834800   -0.49378900
Se    0.24584000   17.44035000    9.37397000     -0.520789   -0.66340100   -0.34829600
Se    1.85960000   19.89526000   15.33426000      0.389518   -0.30503500   -0.57362600
Se    6.74531000    0.01726000    3.52168000     -0.179474    1.05265400    0.05255600
Se    8.49309000   21.78696000    1.42129000     -0.767249    0.98833200   -0.00631600
Se   10.24563000    8.84789000    6.62328000      0.139015    0.01843200   -0.16246600
Se    4.60098000    6.02911000   14.32808000     -0.145396   -0.38746200    0.18622800
Se    5.70243000   12.57805000    4.62861000      0.158671    0.15200700   -0.15613500
Se    9.94246000   14.03489000   13.99939000     -0.010233    0.18367300    0.38205700
Se    7.37087000   17.53384000    3.43729000     -0.183757    0.38941800    0.97478500
Se    7.15354000   16.38269000   14.78448000      0.765505    0.78558400    0.26763800
Se   13.20895000    0.09753000    3.90435000      1.533543    0.36695600   -1.42362600
Se   13.55186000   22.38622000   16.29788000      0.480150   -0.18896700   -0.29695900
Se   11.33054000    9.85636000    4.55458000      0.707634   -0.43050600    0.32847200
Se   11.10443000    6.89996000   15.18248000     -0.379397   -0.12181900   -0.08554600
Se   12.75893000   12.72218000    5.25370000     -0.140968   -0.70776100    0.41824700
Se   13.71816000   13.30651000   14.00839000     -0.478216    0.35050600    0.06214700
Se   12.31045000   19.31317000    7.27662000      0.549608   -0.72347200   -0.03528400
Se   11.86284000   18.51572000    0.28702000      1.061989   -0.48747000   -0.26273800
Se   21.17580000    1.69424000    5.40913000     -0.046933   -0.42507900    0.05785000
Se   17.96366000    0.38031000   16.65103000     -0.744554    0.20203900   -0.73749700
Se   19.28597000    5.03587000    6.18274000      0.281361   -0.03286800    0.89544400
Se   18.43700000    5.43136000   15.69594000     -0.071096   -0.19098400   -0.10877300
Se   19.56693000   11.47693000    5.11491000      0.424611   -0.14100600   -1.10739900
Se   17.43614000   13.05956000   11.96555000      0.584429    0.29673600    0.17703500
Se   18.07089000   17.37639000    4.59995000     -0.557347   -1.31086800    2.30097200
Se   17.84252000   19.82615000   14.58372000     -0.516343    0.55754100    0.73525100
Se    3.24534000    6.33654000    5.86869000      0.075541    0.71097300   -0.41998400
Se    1.20925000    7.45742000   13.40301000      0.147819    0.68594100    0.34128900
Se    2.60151000   11.16009000    5.39363000      0.268307   -0.89208100    0.38401600
Se    4.37347000   10.81508000   14.18190000      0.814162   -0.71133000    0.36622300
Se    6.07201000   13.73211000    7.05699000      0.346451    0.14460600   -0.11637900
Se    3.58474000   17.74128000   17.74713000     -0.618074    1.58765300   -0.33862800
Se    0.97071000   19.74386000    7.14645000     -0.359468   -0.80742000    0.21779700
Se    4.79423000    0.05296000   16.02320000      1.432720   -0.92269800    0.02724300
Se    9.46255000    1.23577000    5.39438000     -0.119428   -0.07567800   -0.30106600
Se    8.12767000    2.92295000   17.91627000      0.128218   -0.12209300    0.22207900
Se   11.36585000   12.60880000    9.16077000     -0.245795    0.85692500    0.12989100
Se    9.54016000   11.28414000   17.16214000     -0.292303   -0.30453200   -0.20286000
Se    8.63432000   14.36171000    8.74324000      0.444722    0.59851900   -0.67392000
Se   11.28125000   17.74898000   14.73002000     -0.330159   -0.71210700   -0.52846500
Se   11.67177000   20.02052000    3.82169000      0.140304   -0.08838400    0.27926500
Se    8.94914000   17.94735000   17.63298000     -0.870094   -0.45188900   -0.19318000
Se   12.24813000    3.48418000    6.58825000      0.716289    0.66811400   -0.30342000
Se   17.48976000    3.23762000   15.77597000     -0.127775    0.43259600   -1.20016400
Se   16.00776000    8.46574000    5.88841000     -0.766337    2.35700800    1.15013900
Se   16.67059000    9.29383000   12.41704000      0.083584   -0.12089400   -0.75118600
Se   16.38654000   11.58965000    5.69054000      0.228545    0.37829400    0.31787500
Se   15.11733000   16.87291000   15.19873000      0.446360    0.21593900    0.72931800
Se   17.28431000    2.92471000    3.19527000     -1.771462   -0.36479000    1.12340700
Se   18.08973000    3.31315000   12.19192000      0.962767   -0.18156500    0.16647700
Se    1.68241000    2.72372000    6.66231000     -1.938598   -1.34176400   -2.11805600
Se    1.05733000    4.47367000   14.64387000     -1.566791    0.64396000    0.42406900
Se   19.22192000   12.56917000    8.22314000     -0.253959    0.32696800    0.38846600
Se   20.97650000   11.91811000   14.18133000      0.207029   -0.17854100   -0.69960700
Se   21.30569000   13.45434000    7.22857000      0.011909    0.01447300   -0.26101000
Se   20.09536000   18.32309000   12.74375000      1.236474   -0.25544000    0.90131900
Se   20.30488000   18.99467000    9.00739000     -0.110080    0.24682400    0.77123800
Se   20.95352000   20.82905000   15.95107000     -0.999384   -1.38428600   -0.67838100
Se    3.23266000    1.36123000    4.12596000     -0.282050    0.98674800    0.74294900
Se    6.67319000    3.10691000   16.16366000     -0.989794   -0.04966600   -0.06789000
Se    1.63921000    6.17337000    0.35225000      0.346633    0.50829600    0.62824800
Se    5.75648000    8.99878000   12.78437000     -0.665106    0.64962500    0.00242300
Se    2.12892000   12.80049000    2.36753000      0.070934   -0.04779100    0.02187300
Se    4.75085000   15.11016000   15.16243000      0.294824    0.11257700    0.75208000
Se    3.84607000   18.04105000    2.42542000     -0.139018    0.62831900    0.72354900
Se    4.49959000   18.21548000   12.39348000      0.404066    0.55118700    0.46787600
Se   10.39496000    0.65683000    1.76211000      0.176216    1.23706800    1.18988500
Se   10.13154000    0.43370000   16.20346000      0.551823   -0.24272000    0.01016400
Se    9.71081000    7.45144000    2.71956000      0.184412   -0.05072600    0.24805900
Se    7.63214000    8.86397000   15.72633000     -0.348949   -0.50825600    0.10332600
Se   10.66507000   11.84662000    3.19799000      0.430964   -0.00683000   -0.69806300
Se   10.33288000   11.38770000   11.62438000      0.237304   -0.00085500   -0.34125100
Se   10.40634000   19.38545000    1.99107000     -1.039395    0.05983500   -0.38452200
Se   14.88210000   18.61125000   13.70266000     -0.000410    0.44676000   -0.05435300
Se   15.50786000    3.33689000    5.37804000     -0.438615   -1.03653200   -0.70116200
Se   13.88364000    1.75010000   14.94969000     -0.187372    0.03203000    0.28654800
Se   15.09357000    6.26586000    3.37905000      2.333850   -4.08366800   -0.32193800
Se   13.07928000    7.29393000   11.65504000     -1.057897    0.27197400   -0.44356500
Se   16.03903000   10.98656000    2.57679000      0.313417   -0.59242000   -0.16569400
Se   17.04030000   14.51037000   16.69814000      0.171350   -0.23750400   -0.44560100
Se   14.94327000   15.64981000    4.44552000      0.654547    0.16885800    0.03039900
Se   14.19933000    0.00001000   12.41140000      0.611677   -0.18180600    0.22298500
Se    2.22044000   21.03545000    5.68681000     -0.394448    1.17963200   -0.81154200
Se   19.52556000    1.26558000   12.74675000      0.517910   -0.93683300   -0.27917900
Se   22.40361000    7.21044000    3.82133000     -0.176712   -0.12617600    0.78070100
Se   19.97229000    8.71751000   14.09586000     -0.837996   -0.44145200   -0.83784200
Se    1.34148000   13.69603000    5.79560000     -0.143761   -1.80185300    0.49827500
Se    0.11114000   15.01039000   15.25702000      0.141401   -0.12444200    0.27119500
Se   21.61893000   16.62846000    5.58887000     -0.658955    1.14008500    0.57302200
Se   21.11566000   20.81780000   10.97922000     -0.206543    0.50075900   -0.41048000
Se    1.61823000    4.65564000    3.49242000      1.742665   -0.14501700    0.20886200
Se    3.06755000    5.15979000   11.96837000     -0.738024    0.73988000   -0.86882000
Se   21.85085000   10.74441000    4.13953000     -1.001628    0.38727700   -0.13388700
Se    1.50688000   10.86992000   11.93541000     -0.827202   -0.88016900    0.27716900
Se    0.11406000   15.89232000   18.73458000     -0.177753   -0.27524400    0.42119300
Se    3.63414000   15.46102000   12.58428000      0.155043    0.08755400   -0.27757500
Se    1.78454000    0.88020000    2.35014000     -0.295675   -0.54641500   -1.24955700
Se    4.62425000   20.41285000   14.49254000      1.057978   -0.07029300    0.31528200
Se    9.68613000    5.46525000    4.68857000      0.278180   -1.12211600   -0.29407200
Se    8.13761000    2.56171000   14.24547000      0.509621    0.03734700   -0.83610500
Se    6.76243000    7.35273000    5.51450000     -0.025976   -0.92763500    0.39723300
Se    7.90294000   12.75396000   14.72197000     -0.080151   -0.22018800   -0.93462900
Se    6.09230000   15.22390000    1.54765000     -0.623558   -0.56039400   -1.03620200
Se   11.18146000   15.47609000   11.21495000     -0.379457    0.04653500   -0.06322500
Se    7.67809000   20.20307000    6.22882000     -0.798787    0.20570000   -1.38269400
Se    7.57176000   20.51539000   15.12791000     -0.239210   -0.22267800   -0.16179800
Se   14.84852000    1.54339000    2.66931000     -0.436235   -0.29864700   -0.13040600
Se   10.92248000    4.54401000   12.01900000      0.921804    0.88618400    0.56870200
Se   13.91531000    8.02113000    3.40908000     -1.490716    4.23802200    0.10745900
Se   10.75756000   10.50786000   13.84058000      0.766225   -0.06821600    0.18540800
Se    9.35192000   14.22812000    4.96555000     -0.239417   -0.82297300   -0.17217900
Se   15.07743000   15.52620000   10.97498000     -0.297229   -0.19508300    0.01254500
Se   14.96992000   20.05810000    2.21560000     -0.717771   -0.30656700   -0.58171400
Se   13.26258000   20.95747000   13.81595000     -0.432457   -0.91915900    0.03204800
Se   17.72978000    5.67973000    1.28588000     -0.300450   -0.35666900   -0.56051100
Se   14.52405000    4.79479000   13.26020000     -0.688944   -0.38981300   -0.38766400
Se   18.40342000    8.37596000    3.41820000      0.211758   -0.02151600    0.19803500
Se   21.21143000   13.36017000   12.20665000     -0.103065   -1.03637100    0.53841700
Se   21.28307000   14.28990000    3.42183000      1.148871   -0.54497900   -1.70836100
Se   17.09950000   16.66556000   12.47313000      0.358109   -0.02357800   -0.61853100
Se   16.87280000   21.02371000    5.43330000      1.151802   -0.82009300   -1.74557100
Se   16.26847000    1.11284000   10.09188000      0.429743    0.39088100   -0.16499300
