384
22.54784000 22.54784000 18.93360000
Ge    6.13823000    4.99971000    9.52414000     -0.154553    0.50368300   -0.80488900
Ge    4.52516000    7.64311000    1.43010000     -0.231012   -0.10117700    0.13553100
Ge    3.72216000   11.88581000    6.82397000      0.068532   -0.53862800   -0.38319200
Ge    6.07636000   10.40622000   17.50712000     -0.930274    0.11778500   -0.18708100
Ge    4.42435000   13.35933000    9.76354000     -0.552829    0.24034500    0.38281800
Ge    9.02852000   17.82954000    0.26245000     -0.429215    0.04525500    0.33091400
Ge    6.40731000   18.54620000    7.98812000     -0.676612    0.73914000   -0.20871700
Ge    4.85613000    1.78907000   16.44816000     -0.020063   -0.15879700   -0.22567000
Ge    9.03643000    7.66759000    9.98042000     -0.443501   -0.66736600   -0.56066600
Ge   10.86057000    5.16892000    0.30221000     -0.140440    1.01095200   -0.01065800
Ge   12.23889000    8.61972000    9.36024000     -0.114459   -1.09493300   -1.24249200
Ge    9.66369000   11.75947000    0.37653000      0.425843    0.03452600    0.22454000
Ge   10.19735000   16.53145000    9.02403000      0.619348   -0.10546300    0.44223100
Ge   11.82623000   16.10090000    0.32136000     -0.160081   -0.77267200   -0.38003500
Ge    9.39902000   22.33640000    9.95227000      0.459410    0.24540000    0.47254100
Ge   13.97016000    0.83997000    1.28316000      0.076855   -0.45141700    0.23974800
Ge   19.12507000    5.69310000   10.12828000     -0.227715   -0.94573400   -0.46267300
Ge   17.74110000    8.51684000   16.93081000     -0.096742    0.24226800    0.11317100
Ge   17.51562000   14.71713000   11.00141000      0.563935    0.69086000    0.16070600
Ge   18.04606000   11.47602000   17.15019000     -1.323674   -0.02357800    0.07228200
Ge   13.32510000   15.24371000    8.48174000      0.386241    0.22715900   -0.53943400
Ge   16.95994000   15.39720000    0.99075000     -0.517699   -0.05514500   -1.07447500
Ge   15.92735000    3.30301000   10.02497000     -0.316688    1.94862300    0.14552700
Ge   18.82092000    2.76085000    0.09930000     -0.105575   -0.34347900   -0.28578700
Ge    1.77285000    4.52246000    9.90929000     -0.048242    0.77122700   -0.39177800
Ge   20.75308000    3.65417000    4.36842000      0.347356   -0.23403800    0.55092900
Ge    0.17682000   10.77177000    9.51650000      0.146010   -0.34936100    0.79345300
Ge   21.45262000    9.49014000   18.57190000      0.262141    0.22300300   -0.27629200
Ge   20.22111000   14.99292000    7.75573000      1.018723   -0.46258800    0.52440400
Ge    4.28872000   15.78844000   17.43262000      0.169330    0.02167100   -0.06159200
Ge   19.29030000    0.35877000   10.17207000     -1.007846    0.91706600   -0.50133500
Ge   21.97153000   19.33766000    3.06890000     -0.066855    1.01655700    0.57594700
Ge    4.16535000    7.37458000    6.43743000     -0.256941    0.64574500    0.92981900
Ge    1.99754000    8.03030000   18.12425000     -0.476377    0.30390500    0.68768800
Ge   21.01486000   10.24302000    4.49545000     -0.438905   -0.02871900   -0.80213100
Ge    4.38785000   13.49181000   14.71988000     -0.513122   -1.30751600   -0.37669400
Ge    4.38476000   17.46915000    4.60400000     -0.377267    0.32906200    0.69225900
Ge    0.30626000   18.76154000    0.59074000      0.668996   -0.58038900   -0.90985000
Ge    3.19913000   18.36971000   10.21167000      1.199569   -0.54452800   -0.84444500
Ge    2.02960000    1.24832000   17.60951000      0.699378    0.15648600    0.56738400
Ge   10.04694000    2.87539000    7.73703000     -0.583198   -2.01231600   -0.08890200
Ge    6.81265000    6.04756000   16.45153000      0.882842   -0.21000700    0.10213300
Ge    8.75850000    9.34521000    4.04187000     -0.439513    0.94167300   -0.26057000
Ge   10.25056000    7.76455000   16.45589000     -0.641119   -0.99600900    0.55440200
Ge    7.55697000   15.70292000   10.02339000     -0.275412   -0.43265900   -0.17867800
Ge    9.61372000   14.78932000   16.31380000      0.567493    0.10253800    0.29456000
Ge   10.64800000   21.71803000    6.80226000     -0.123203   -0.21192200    0.48325500
Ge   10.94179000    1.13652000   13.38450000     -0.272742    0.21280600    0.22638700
Ge   11.72023000    7.38383000    5.35707000      1.312939   -0.39234500   -0.09506200
Ge   15.25564000    3.22896000   16.51021000      0.487241   -0.15080400    0.08404400
Ge   15.24939000    9.06060000    6.03910000     -0.896085   -0.15612100    1.32363100
Ge   14.72081000   12.94806000   15.86125000      0.440413    0.03875500   -0.82186700
Ge   12.07190000   14.51840000    5.02688000      0.729016   -0.20010500    0.75324700
Ge   14.90664000   18.64794000    0.03627000      0.404990    0.27072400    0.20362500
Ge   14.25617000   21.75690000    8.59221000      0.474549   -0.25464900    0.21467000
Ge   17.73299000   21.56900000   13.58839000      0.037594    0.23653200   -0.29448000
Ge   22.01192000    4.39482000    8.19378000      0.248981   -0.20279700    0.35161100
Ge   19.90378000    5.67780000   13.50465000      0.735334    0.22392400    1.19086800
Ge   18.89937000   11.04981000    7.79205000      0.079760   -0.09848900    0.32531100
Ge   20.81196000   15.20765000   16.64838000      1.090554   -0.10491000   -0.45855500
Ge   18.17189000   16.69555000    6.06546000     -0.051409   -0.79150600   -1.85747800
Ge   16.99374000   17.77659000   16.01707000     -0.382842    0.32953800   -0.47000500
Ge   22.13684000    0.82953000    6.29434000     -0.658664    0.45413500    0.30198200
Ge   18.93435000   21.10025000   17.42058000      0.356535    0.77352300    0.93709600
Ge    6.18965000    2.12135000    6.58827000     -0.196078   -0.04487100    0.97993800
Ge    4.45092000    2.52071000   13.13020000     -0.762452    0.89237200    0.30218400
Ge    0.54184000    9.60873000    6.10994000      0.413245    0.22340200    0.69390600
Ge    2.86503000    7.21004000   11.60597000     -0.532648   -0.36919200   -1.12170400
Ge    0.76227000   15.52526000    3.63436000      0.046739    0.30525200    1.49736000
Ge    2.30053000   17.53519000   15.10845000      0.460654   -0.50742900    0.60314800
Ge    3.82572000   21.97477000    9.88141000     -0.303091   -0.08970300    0.05204900
Ge    8.65078000   19.20017000   15.89824000      0.193422   -0.37455300   -0.02705500
Ge    6.49633000    3.33426000    2.36566000     -0.447740    0.68449700    0.71219900
Ge    9.70689000    3.35587000   17.18252000     -1.336410   -0.84032400   -1.02786400
Ge    8.40436000    6.69195000    4.30027000     -1.287680   -0.79843100    1.23526900
Ge    8.18534000    9.58455000   13.46034000     -0.275299    0.01653000    0.16648300
Ge    5.35609000   14.37395000    4.28617000      0.641909    1.21610600   -0.83897300
Ge   11.67125000   12.16508000   14.47877000      1.923821   -0.49894400    0.63103200
Ge    7.42338000   20.61627000    4.38623000      0.524989   -0.41723700   -0.07296300
Ge    9.64777000   16.35024000   12.91977000      0.275682    0.21492900   -0.62291500
Ge   12.35051000    1.92651000    4.42178000     -0.225426    1.09623300    0.00182200
Ge   12.58749000    4.42380000   14.58310000     -0.340141   -1.04892000    0.03479600
Ge   17.68866000    3.80635000    5.66585000      1.073981    0.07112700    0.10625100
Ge   14.14048000    9.22072000   14.42431000      0.377661   -0.23200200    0.00568000
Ge   15.21394000   13.42077000    3.48674000     -0.082497    0.12704300   -1.88011100
Ge   13.04181000   15.42518000   11.74176000      0.460350    0.54838000    0.12472000
Ge   10.63688000   18.61580000    4.43553000     -0.934749   -0.28136900   -0.48307300
Ge   11.85035000   20.04410000   17.03447000     -0.237201   -0.25951100   -0.29362000
Ge    0.19344000    6.28829000    6.15252000      0.418727   -0.24774300    0.50599600
Ge   22.27375000    4.20335000   13.67671000     -0.492481   -1.55235700   -0.43189700
Ge   19.80991000    7.86470000    7.41637000      0.416041   -0.32726300    0.39506300
Ge   16.99471000   10.51091000   12.59009000     -0.303717    0.05992600   -1.65778800
Ge   20.14975000   16.69592000    0.55675000      0.410834    0.21879100    0.13723800
Ge   19.73242000   15.62161000   13.72191000     -0.156466   -0.95177500    1.08307500
Ge   19.08900000   20.79480000    4.97520000      0.684675   -0.35096400    0.71807000
Ge   21.51989000   20.56636000   13.72753000     -0.235164    0.55659900   -0.84506800
Ge    2.77674000    2.11045000    3.11792000      1.173432   -0.94449500    0.00834000
Ge    5.77486000    0.69909000   12.08339000     -0.310598   -1.00589300   -0.01041500
Ge    3.68686000    9.16800000    3.55596000      1.193445   -0.59497400    0.28504300
Ge    6.72675000    4.17732000   14.41907000      0.517141    0.48041000   -0.31611600
Ge    4.30954000   12.84801000    1.44135000      1.707477   -2.12969100   -0.53307700
Ge    3.85110000   10.32684000   12.45847000     -0.597906    0.45719500   -0.93165500
Ge    3.49121000    0.21309000    7.33799000      0.942351    0.87196900    0.14023300
Ge    7.27836000   19.92505000   12.56990000      0.105484    0.13441300   -0.56799400
Ge    9.83323000    3.52483000    2.81187000     -1.309565   -0.27930100    0.02200500
Ge    9.45300000    4.52195000   11.72105000     -0.259723    0.08840400    0.08408300
Ge   12.09386000    8.40363000    1.63725000     -0.324721    0.08682900    0.22762800
Ge   10.96553000    8.47732000   12.21437000      0.290862    0.03934600    0.10424800
Ge    8.67676000   13.52947000    2.13378000     -0.833138    0.02371700    0.24006900
Ge    7.83998000   12.47698000   10.67202000     -0.642590    0.39565000    3.17322600
Ge   11.46069000   21.24921000    1.91148000     -0.277069   -0.07206300    0.06459800
Ge   11.45774000   19.15146000   12.70508000     -0.276872    0.39858800   -0.99068500
Ge    0.42640000   22.25530000   16.23331000     -0.583932    0.02114700   -0.19575600
Ge   12.60234000    1.34202000   10.40765000     -0.304557    0.13122200   -0.28754000
Ge   16.13254000    6.99331000    1.84120000     -0.137728   -0.45295600   -0.12636800
Ge   15.19099000    6.23318000   11.68129000     -0.029899    0.22617000   -0.59522600
Ge   18.14857000   12.08289000    1.38515000     -0.258221   -0.66899800    0.47063000
Ge   16.36961000   16.77087000    8.59653000     -0.190558    0.17530800    0.80424300
Ge   17.37105000   20.89606000    2.24736000     -1.297256    0.95995400   -0.04542400
Ge   15.20899000   19.78625000   10.76029000      0.641266    0.06737300    0.87023500
Ge   21.11211000    1.28284000    2.13311000      0.380478    0.09085700    0.65277300
Ge    0.29955000    1.22292000   10.60941000      0.149138    0.21939200    0.24387600
Ge   21.84699000    7.84138000    1.92259000      1.722805   -0.50704500    0.31338000
Ge   21.77101000    8.71306000   13.86813000     -0.577695    1.20641300    0.14455400
Ge   20.52783000   13.04534000    0.70938000      0.563931   -0.85488500   -0.07665700
Ge    0.46456000   15.41370000    9.29782000     -0.974882   -0.48690700   -0.42533800
Ge    3.87737000   20.49942000    4.73190000      0.590369    0.17679400   -0.14770400
Ge   20.24997000   19.44716000   10.93903000     -1.455839   -0.97582000    0.83572500
Se   21.24860000    0.38261000   18.71848000      0.374164   -0.69772400    0.27004500
Se    1.50817000    1.15731000    8.39596000     -0.071462    0.28825100    0.04868300
Se    2.08395000   10.59493000    2.45533000     -0.188332    0.47369400    0.54431500
Se    0.09845000    6.42410000   12.97510000      1.099452    1.29326200   -0.68654200
Se   22.45631000   13.21835000   18.02808000      0.375647    0.20375300    0.20937600
Se    1.35109000   13.08158000    9.56876000      0.677589   -0.01874000   -0.04288500
Se    1.74938000   17.25274000    5.09543000      0.676644    0.35978000   -0.38780500
Se    2.20505000   16.15589000   10.66246000      0.655923    0.28334100    0.28238300
Se    4.39891000    2.24145000    1.12650000     -0.321437   -0.17994000   -0.12594400
Se    6.72322000    3.62616000   11.35375000      0.193791    0.09955500    0.70539800
Se    6.34269000    5.93825000    2.19365000      0.050130    0.27245300   -0.32729300
Se    8.56830000    7.01944000   12.33963000     -0.146446    0.59021700    0.14758800
Se    7.67177000    9.95635000    0.52269000      0.550958   -0.17600400   -0.02561900
Se    6.01689000   11.24963000   14.03428000     -0.143643    0.83095800   -0.09433900
Se    5.85411000   20.53116000    2.45710000     -1.038243   -0.41872000    0.11241600
Se    9.20984000   18.46627000   11.02058000      0.036689   -0.26646200    0.75861300
Se   11.48670000    1.67794000    0.61912000      0.532368    0.55796300    0.13763700
Se   13.25144000    1.92607000   14.09341000     -0.970537    0.84590000   -0.82438200
Se   12.31726000    7.28679000   18.35556000     -0.491448    0.03769500    0.02233800
Se    9.93022000   10.00475000    9.90789000     -0.149480    0.06774500    0.28598800
Se   13.11084000   14.83593000    2.19433000      0.528593   -0.38873800    0.16530900
Se   12.60209000   10.57416000    7.75117000      0.290478    0.42130400    0.41254500
Se   14.18194000   17.54531000    2.35440000      0.121060    0.28711700    0.28509400
Se   13.02182000   17.25315000    9.73992000     -0.388390    0.24870800    0.36937500
Se   18.59332000    4.18871000    2.57007000     -0.060216    0.01859800   -0.01746900
Se   16.50410000    1.72964000   13.43705000     -0.426612   -0.02448300    0.04056200
Se   15.75218000    8.42082000   18.67522000     -0.092423   -0.04621300   -0.34838300
Se   17.90741000    5.49713000   12.37535000     -1.315948   -0.54138300   -1.32862200
Se   19.16564000    9.59559000    0.63236000     -1.531523   -0.10597800    0.55323400
Se   16.39370000   14.73082000    6.82409000      0.449815    0.36874400   -0.90449800
Se   20.89627000   20.20376000    0.91041000     -0.618990   -0.26363200   -0.43622200
Se   17.07549000   19.15980000    7.71262000     -0.441834    0.47795200    0.01373900
Se    1.21208000    0.47914000    2.18757000     -0.508415    1.06811600   -0.64024800
Se    6.50238000    7.75802000    9.47406000     -0.334519   -1.00943700    0.39937400
Se    6.63009000   10.39802000    2.57624000      0.272800   -0.25717700    0.00807900
Se    4.65472000   10.79255000    9.68871000     -0.523393    0.30938400   -0.67170800
Se    3.21740000   14.84611000    1.49057000     -0.308269    2.13550100   -0.32414800
Se    2.66894000   13.04886000   12.46061000      0.638381    0.13101000    0.22412600
Se    3.86549000   21.61196000   17.90689000     -0.494132    1.01944300    0.28974700
Se    5.80406000   20.59157000    9.99023000      0.705096   -1.09195400    0.28531200
Se   11.78263000    4.87216000    3.36844000      0.831788    0.58028800   -0.14141500
Se    7.44669000    4.13113000    7.53999000     -0.385216    0.18439800    0.16487400
Se   11.74715000   10.92283000    1.66803000     -0.221657    0.02088900   -0.41073600
Se    6.70916000   10.50072000   10.83060000      0.133222   -0.86931500   -0.29698100
Se    9.66479000   15.67600000    1.59614000     -0.039348    0.63156500    0.61063200
Se   12.65967000   12.69759000   12.20439000      0.916628   -0.13618700    0.64522900
Se    9.89876000   21.47906000   18.07002000      0.085281   -0.27047300   -0.03074400
Se    8.12027000   22.49295000   12.02956000      0.478505   -1.07245200    0.72745600
Se   14.92843000    5.31743000    0.13276000     -0.000909    0.17489700    0.24443500
Se   16.45407000    6.26469000    8.83161000      0.572841    0.27885800    0.21520800
Se   14.89663000   10.85475000    0.36386000      0.487625    0.73676700   -0.23900900
Se   15.12348000   12.44818000   13.33137000     -0.784429   -0.20043600   -0.19463100
Se   18.71413000   14.87096000    2.67862000      0.748800    0.20107900    0.28051600
Se   16.26331000   11.54543000    9.60561000      0.456270   -1.11411700    0.35057100
Se   17.40921000   22.52224000    0.39751000      0.553250   -0.14676100   -0.25469000
Se   15.37396000   20.42229000    6.67644000     -0.380071    0.25188700   -0.21477200
Se    0.16189000    3.75119000    1.28865000      0.120259   -0.42558700    0.77288800
Se   21.57142000    4.58547000   10.85687000     -0.609079    0.10236700   -0.22420800
Se   21.33701000    5.93939000    0.18093000     -0.539126   -0.71363200    0.03478800
Se   20.83020000   11.03357000   12.82405000      0.363334   -0.33955500   -0.17595200
Se   19.08913000   14.66951000   18.33223000      0.165935    0.08851800   -0.47624200
Se   21.17935000   16.23884000   12.12227000      0.801097    0.55850600   -1.27960800
Se   21.22132000   21.80054000    3.87165000     -0.190103   -0.29083200    0.14318200
Se   17.65511000   21.05444000   10.99679000      0.091912   -0.66104300    0.60901300
Se    3.81811000    5.44715000    8.67015000      0.363086   -0.18623800    0.14085000
Se   21.84561000    2.68166000   18.10387000      0.389143    0.53499100    0.30855900
Se    2.12039000    9.90960000    8.21374000      0.307971   -0.28761300   -0.78298300
Se    1.04603000   10.73998000   17.47968000      0.479305   -0.27989500   -0.02483000
Se    3.95024000   18.15420000    7.45344000     -0.001984   -0.12335900    0.97533100
Se   22.54216000   18.13213000   15.23965000      0.038420   -0.26057800   -0.45341500
Se    0.67538000   18.87556000   12.53467000     -0.382787    0.07395800    0.21380000
Se    1.83861000   20.53638000   17.44302000     -0.600488    0.17845000   -0.14328600
Se    3.92900000    4.54364000    5.76267000     -0.163158   -0.30527700   -0.50540900
Se    4.97306000    5.92509000   18.18607000      0.514448    0.73199000    0.65838500
Se    5.30497000    9.50708000    5.90818000     -0.731031    0.39641600    0.17663700
Se    3.36862000    6.76254000   16.64517000      0.275477    0.05327000   -0.75196700
Se    6.62242000   14.26819000   12.00975000      0.561599   -0.44303100   -1.18119100
Se    6.73211000   17.08623000   18.25626000     -0.040224    0.10298900   -0.33455000
Se    9.35727000   18.61523000    6.84978000     -1.730684   -0.21612000   -1.15560300
Se    6.53899000   19.49767000   18.11433000      0.196017   -0.28765200   -0.49171000
Se    9.95077000    2.13669000   10.65389000      1.366499   -0.26777600   -0.55220300
Se   11.92766000    4.00650000   17.04261000      1.843118    0.71009400   -0.03012500
Se   13.54954000    7.13552000    7.24443000     -0.122891    0.50110200   -0.47477100
Se   14.06576000   10.81252000   16.77904000     -0.265950   -0.14228300   -0.14875900
Se   11.37176000   14.10264000    7.79439000     -0.114422    0.17542000   -0.87444300
Se   13.81190000   15.69674000   17.48154000      0.415020    0.87927800   -0.42097500
Se   12.56274000    0.86636000    7.73626000     -0.133650    0.52914000   -0.26562900
Se   13.88567000   21.91086000   18.24139000      0.496060   -2.21699200    1.70817500
Se   13.66020000    3.90788000   10.52784000      0.164139    0.29104500    0.15187100
Se   20.88781000    2.67038000   15.66695000      0.035563   -0.58675400    0.03545500
Se   18.72651000   11.21729000   10.45873000     -0.424239    0.11411000   -0.08329500
Se   17.31086000   10.52896000   14.90720000      0.392252   -0.26559600    2.14062700
Se   13.95351000   16.24575000    6.11077000     -0.353515   -0.32480000    0.06448400
Se   20.30817000   13.23880000   14.53725000      0.564482    0.82945000   -0.00219600
Se   19.17177000   21.28826000    8.16146000     -0.086738   -0.03903100   -0.47404600
Se   18.58507000   18.78745000    2.63898000      0.010388    0.24797300    0.31815900
Se    4.90821000    1.88919000    8.92629000      0.422338   -0.16601100   -0.49805100
Se    3.20417000    3.45022000   18.33312000     -0.027781   -0.67581200    0.21644600
Se    9.78782000    9.84547000    6.63370000     -0.897766   -0.12667900    0.39678500
Se    4.11007000    9.91182000    0.40085000     -0.063476   -0.65820100   -0.81491400
Se    6.71523000   16.77255000    5.58663000      0.567121    0.68959200   -0.57865800
Se    4.76084000   12.79815000   17.75404000      0.884564   -0.66310300    0.56396500
Se    1.35791000   19.83410000   10.32752000     -0.025622    0.68197400   -0.05474000
Se    2.69447000   17.99171000    1.77795000      0.103368    0.22735600   -0.04365300
Se    7.99034000   22.22887000    8.06549000      0.300575   -0.06680200    0.05536800
Se    8.14052000    3.40131000    0.51700000      0.252731    0.14951400    0.20597100
Se   10.20407000    5.08407000    8.47449000      0.263528    1.92906900    2.50322100
Se    8.45794000    6.68211000   18.24417000      0.750527   -0.31062300   -0.08643100
Se    8.11360000   11.56744000    5.34239000      0.446284    0.90857900    0.83408100
Se    7.44754000   14.35321000   17.04702000     -0.503219   -0.16916900    0.58127600
Se   11.69540000   21.48339000   10.45412000     -0.732814   -0.78874200    0.30194300
Se   11.19742000   13.40344000   18.25218000     -0.098949    0.42225700   -0.63431100
Se   16.60398000    0.31582000    8.19391000     -0.407052   -0.15074700   -1.42965400
Se   15.52195000    2.91575000    0.06179000      0.569492    0.08420500    0.53700900
Se   16.20352000    3.96746000    7.69715000     -0.384271    0.38039900    0.15365600
Se   14.47056000    6.98239000   15.63544000     -0.132050   -0.45171900   -0.03642100
Se   15.99587000    8.86141000    8.88271000      0.353910    0.56296600   -0.56442700
Se   14.98883000   13.67750000    0.51646000     -0.325413   -0.25861300   -0.04010700
Se   12.97975000   18.51272000    5.64825000      0.680773   -0.22449000   -0.49246000
Se   17.52042000   17.57895000   18.43767000     -0.453302    0.59369700    0.69449600
Se   21.26105000    1.98344000    8.64826000     -1.015166   -0.12405300    0.55110200
Se    0.91659000    0.20453000   13.62412000     -0.366053   -0.85344800    0.21296300
Se   19.74256000    8.03024000   10.03701000      0.269178    0.51428300   -0.19351900
Se   22.28237000    6.53944000   17.08670000      0.687400    0.56110100   -0.41044800
Se   21.47985000   11.50574000    7.56494000     -0.808182    0.30933400   -1.39194800
Se   20.40323000   11.56748000   17.08142000      0.465103   -0.40081000   -0.13097900
Se   18.90792000   17.02441000    8.26133000      0.661722    0.77364600    0.33702300
Se   19.63744000   17.22348000   15.47112000     -0.053605    0.16311800    0.98638300
Se    3.54374000   21.88827000   12.32410000      0.263659    0.46673000   -0.84109100
Se    2.40051000    1.73296000   14.58545000      0.364960    0.72936800    1.15577000
Se   22.10963000    7.66627000    8.60459000     -0.642416    0.10700400   -0.62440300
Se    0.73371000   10.47840000   15.13661000      0.245522   -0.19809300    0.37634000
Se    3.97353000   15.18222000    6.52454000     -1.740572    0.25928800   -0.41166000
Se    2.54424000   13.73313000   16.49671000      0.724355   -0.60250300    0.87543300
Se   22.44599000   17.31908000    7.55938000      0.200647   -0.35330200   -0.22611100
Se    3.02723000   19.58959000   14.16245000      0.436242    0.56201700    0.02489500
Se    6.87222000    0.78941000    2.58589000     -0.845471   -0.24377200    2.04771700
Se    7.35860000   22.42378000    0.59081000      0.522598   -1.56537500   -1.20716100
Se    9.67090000    7.38202000    6.74948000     -0.593013    0.56360000    0.24361600
Se    4.48117000    4.15664000   15.48260000     -0.633355   -0.67556300   -0.75891400
Se    5.55685000   12.09864000    4.78058000     -0.861366   -0.94364400    0.35060800
Se    9.58475000   13.13509000   14.27789000     -1.316541    1.24743000   -0.43727500
Se    7.75078000   17.96548000    3.68361000     -0.049003    0.07573000    0.65705500
Se    8.06146000   16.99458000   14.60650000      0.153356    0.85716400    0.23605900
Se   14.19701000    0.49709000    4.71624000      0.592461   -1.94017700   -0.23729200
Se   13.66976000    0.87926000   16.68687000     -0.504711    1.14721800   -2.21750600
Se   12.61386000    9.90092000    5.25376000      0.580714    0.15072800   -0.40524700
Se   11.02107000    5.98856000   13.54604000      0.229388   -0.42704500    0.36050600
Se   14.23197000   13.03516000    5.45313000     -1.850166   -0.43757200    1.55720500
Se   12.79380000   14.44938000   15.22201000      0.396503   -0.34578900    0.28007100
Se   11.50373000   18.83583000    7.44884000      1.500397    0.32539400    1.80615600
Se   12.12480000   18.57535000    1.48106000     -0.184880    0.05713700   -0.01090600
Se   19.67016000    1.64830000    6.15450000     -0.033343    0.21243400   -0.57120300
Se   19.21323000    1.24025000   16.86584000     -1.034704   -0.13727300   -0.70986000
Se   19.88155000    5.05568000    6.96332000     -0.666822    0.48233600   -0.01409200
Se   19.02425000    5.84928000   15.91224000     -0.003877    0.26635500    0.18848100
Se   18.99943000   11.86150000    4.26342000      0.399432    0.10806800   -0.51618100
Se   17.59857000   14.90188000   13.44803000     -1.613447   -0.31139700   -0.14662700
Se   17.21961000   18.57285000    4.77354000     -0.062960    0.22920100   -0.36292000
Se   16.90245000   20.48741000   16.42840000     -0.581255   -1.18465000   -0.72548800
Se    2.16452000    7.60392000    4.96991000     -0.221503    0.24261000   -0.15700200
Se    2.45673000    6.55025000   13.90387000     -0.367961   -0.04067400    0.23313000
Se    1.36636000   11.69398000    4.67474000      0.090067   -0.20131300    0.11816800
Se    3.86549000   10.50534000   14.85039000     -0.284129   -0.59462200    1.45356200
Se    5.82127000   14.53937000    7.65099000      1.302425   -0.60556100    1.10710500
Se    3.40011000   18.27357000   17.42229000      0.327554   -1.57113200   -0.65452700
Se    2.39820000   20.53846000    7.01692000      0.175709   -1.14647100   -0.09359600
Se    5.72166000   21.93837000   14.71915000      0.470054   -0.04416700    0.08347200
Se    9.04800000    0.70454000    5.67454000     -0.329513    0.26097300   -0.14024300
Se    7.13217000    1.64504000   18.08381000     -0.316647    0.88700500   -1.14001500
Se   13.41691000   11.08435000   10.07148000      0.243736    0.62647200   -0.03967900
Se    9.94496000   10.20339000   17.04126000      1.471814   -0.00741200    1.45145400
Se    8.49116000   13.46716000    8.87482000      0.334488    1.28536300   -2.66404700
Se   12.00537000   17.03214000   13.78936000     -0.655321   -1.00134200   -0.08419100
Se   11.81679000   20.83637000    4.61699000      0.036433    0.55635500   -0.61684800
Se   10.60004000   17.62126000   17.20119000     -0.433979    0.37589700   -0.20783800
Se   11.29905000    4.73392000    6.50466000      0.651776   -0.32895900   -1.81888000
Se   17.71015000    4.52090000   17.33271000     -0.470618   -0.74602200    0.08597100
Se   17.03380000    7.78392000    5.10937000      1.335747    1.09133300    0.16073600
Se   16.50260000    8.06596000   13.23249000     -0.691295    0.32344200   -0.48758700
Se   17.24794000   10.94854000    5.60757000      0.065779    0.05273700    0.09818300
Se   13.95572000   18.03234000   16.47769000      0.224649   -0.74945300    0.16044600
Se   15.61301000    2.34488000    5.00441000     -0.011426    0.22762800   -0.37813700
Se   18.57803000    2.60295000   12.98477000      0.583784   -0.20413300    0.04185200
Se    0.51329000    3.13546000    6.14909000      0.286874    0.72243800   -1.19485500
Se    0.74640000    4.29425000   15.82858000      0.221488    0.23235300    1.00408000
Se   18.11437000   13.62882000    8.03367000      0.397748   -0.42486300    0.39867700
Se    0.12252000   13.07895000   13.35408000     -0.024451   -0.09388400    0.38976900
Se   20.11849000   15.10494000    5.35461000     -0.061783    0.41983200   -0.89219700
Se   19.25812000   19.56119000   13.62462000      0.357202   -0.49562500   -0.76357200
Se   21.55753000   19.13908000    8.69278000     -0.080536    0.21938700   -0.67083000
Se   21.29609000   20.35656000   16.16411000     -0.011000    0.08780800    1.06040400
Se    4.53978000    0.90323000    4.62831000     -1.180423   -0.15868400   -0.14105900
Se    7.23436000    1.78652000   14.91683000     -0.020613   -0.38860400   -0.25757400
Se    2.31285000    6.49092000    1.19523000      0.040802    0.50115400    0.03417800
Se    5.27757000    7.75308000   11.72984000      0.582957    0.00950100    0.11384300
Se    1.14472000   13.78326000    1.87919000      0.481151   -0.55287300   -0.28059400
Se    5.24667000   15.78394000   14.79976000      0.265418    0.32640700    0.76436300
Se    5.17194000   17.84951000    2.14178000     -0.502614    0.56276700    0.32691800
Se    4.96233000   18.22622000   12.11676000     -0.341235   -0.59673900   -0.60060200
Se    9.91773000    0.97454000    3.39775000      0.588999    0.50919600   -0.28227300
Se   10.67354000    0.80779000   16.82117000      0.256096    0.41961300   -0.27204700
Se    9.67990000    7.17125000    2.40451000      1.254915    0.37431600   -1.38346800
Se    7.16693000    8.23505000   15.36699000     -0.310896   -0.28167300    0.65098800
Se   10.81107000   11.32501000    4.32105000     -0.679087   -0.32884400   -0.29625200
Se    9.70766000   11.52615000   12.05986000     -0.061052    0.14263900   -0.41103500
Se    9.05303000   20.27867000    1.63683000      0.729524   -0.56831800    0.78547500
Se   15.87006000   18.03832000   12.53333000      0.623614   -0.11465300   -0.78440700
Se   13.66590000    3.71030000    5.97295000     -0.099876   -0.07055900    0.03306000
Se   16.33867000    0.89778000   15.86354000     -0.130676    0.98325800    0.20372700
Se   16.36266000    5.73240000    4.54629000     -0.803169   -1.48658600   -0.65836300
Se   14.06249000    8.72186000   11.02468000     -0.005377    0.48582400    0.55098500
Se   15.69641000   11.14270000    2.86434000      0.592532   -0.16249600   -0.11969100
Se   17.06407000   13.77569000   16.46682000     -0.963232   -0.32707100    0.29340100
Se   16.31575000   15.53391000    3.41179000     -0.423455    0.78320400    1.02837400
Se   14.69903000   21.26124000   12.88096000     -0.057049    0.41977700   -0.29146300
Se    0.18374000   20.94738000    6.59313000     -0.772426   -0.40967200   -0.30656500
Se   20.25986000    0.80149000   13.44086000     -0.451563   -0.16002800   -0.37297200
Se   21.25176000    6.36427000    4.25335000     -0.196848    0.37084600   -0.62372300
Se   19.31855000    8.03758000   14.27638000      1.381066    0.42514300   -0.51663300
Se    0.06291000   14.26652000    5.72739000      0.343526   -0.03925800   -0.20385100
Se    1.28461000   14.92842000   15.08187000     -1.583817    0.98757800   -1.71159400
Se   20.81675000   17.60724000    4.41656000      0.207599   -0.40490400    0.00999300
Se   21.23301000   21.62158000   10.52320000      1.831419   -0.03418000    0.53093700
Se    2.40266000    4.32474000    3.63349000      0.004482    0.75050000    0.35247900
Se    2.37768000    3.07334000   11.65526000      0.001783   -0.28118900    0.52917000
Se   21.84390000   10.70550000    2.03306000      0.560407    1.04708500   -0.21251500
Se    1.61240000    9.34294000   11.67261000     -0.278324    0.22081200    0.32542100
Se    0.44183000   16.57283000   17.94949000     -1.285414    0.25480900    0.46808500
Se    3.92973000   15.95305000   12.75268000     -0.109765    0.79628700    0.25416100
Se    1.57559000   20.64462000    2.45964000      0.979767   -0.90802300    0.27706000
Se    5.15956000   19.36221000   15.53734000     -0.436991    0.57257200    0.10538600
Se    8.19248000    4.05731000    4.82903000      0.770434    0.32072000   -1.07394400
Se    9.53408000    3.34876000   14.09039000      0.400779   -0.18468500    0.26305400
Se    5.48266000    6.19260000    4.82109000      0.173263   -0.88128200   -0.18920400
Se    8.36256000   11.09157000   15.69254000     -1.496482    0.44226600   -0.29468100
Se    6.35316000   14.42497000    1.68256000     -0.089688    0.14476400    0.06336500
Se   10.84169000   14.68121000   10.77272000     -0.318703    0.23908600    0.37064100
Se    5.84797000   20.91132000    6.56999000     -0.092525   -0.62876000   -0.54255600
Se   10.54462000   20.44696000   14.56600000     -0.638782    0.20869300    0.50190200
Se   13.17983000    3.24345000    2.15486000     -0.874371    0.02156200    0.79661200
Se   11.98671000    6.30320000   11.13581000     -0.278039   -0.20312700   -0.26378700
Se   14.17155000    8.44481000    2.96956000     -0.242712   -0.57562000   -0.12659000
Se   11.20992000    9.35086000   14.61619000      0.452780    0.11764100   -0.92907100
Se    8.15184000   14.11903000    4.55019000      0.603833   -0.49290200   -0.05448500
Se   15.19469000   14.30745000    9.77664000     -0.631557   -0.16631300    0.26906500
Se   14.77393000   20.49833000    2.24029000      0.761966   -0.49234200    0.04838600
Se   13.67864000   19.34444000   13.87197000      1.065822    0.40118800   -0.03747800
Se   18.61832000    5.98308000    1.05839000     -0.258715   -0.01975400    0.45607800
Se   14.82035000    4.97600000   13.92419000      0.612410    1.18291800    0.68594100
Se   19.74664000    8.42972000    2.86245000     -1.590789    0.08057100    0.45026100
Se   20.03428000   14.92676000   10.37731000      0.793599   -0.76681100    1.10438000
Se   21.36227000   14.91105000    2.18119000     -1.514358    0.32038400   -0.44963000
Se   17.96518000   17.49369000   10.92055000     -1.974654   -0.34373800    0.91069600
Se   17.79772000    0.05166000    4.05000000     -0.378877   -0.06962500   -0.55615500
Se   16.38572000    1.10050000   10.32643000      0.179870   -1.09363200    1.33703400
