384
22.54784000 22.54784000 18.93360000
Ge    6.19785000    4.90655000    9.58566000     -0.417076    1.02475900   -0.98741800
Ge    4.50290000    7.71189000    1.45298000     -0.029289   -0.86742700    0.86662700
Ge    3.70254000   11.87944000    6.67002000     -0.305997   -0.05167400    0.36508400
Ge    6.00940000   10.36397000   17.67818000      0.136777   -0.04945700   -0.55445900
Ge    4.45150000   13.20194000    9.81445000     -0.605024    0.74842200    0.26725500
Ge    9.02989000   17.87753000    0.25143000     -0.278876   -0.13757600   -0.36642300
Ge    6.37622000   18.54761000    7.88356000      0.121108   -0.25746600    0.20795600
Ge    4.86264000    1.86545000   16.36073000      0.076797   -0.31572500   -0.14527700
Ge    9.14542000    7.48050000    9.87818000     -0.548724    0.43229300   -0.15068500
Ge   10.85278000    5.21997000    0.42997000     -0.354430    1.17991700   -0.49410500
Ge   12.10711000    8.48061000    9.38480000      0.536851   -0.14065400   -0.99788900
Ge    9.73422000   11.91747000    0.38053000     -0.546529   -0.98148900    0.79016400
Ge   10.34863000   16.57693000    8.95639000      0.506065   -0.51440600    0.42710200
Ge   11.79516000   15.90518000    0.48178000     -0.747774   -0.01976700   -0.80079500
Ge    9.52011000   22.37874000   10.01225000     -0.214770   -0.89098000    0.43076800
Ge   13.89677000    0.96506000    1.21113000      0.106658   -0.79495400    0.20951000
Ge   19.05417000    5.54243000   10.03676000      0.847263    0.43540200   -0.74564600
Ge   17.67874000    8.54080000   17.02846000     -0.279147   -0.27138300    0.42765500
Ge   17.46217000   14.65957000   11.01188000      0.803602    0.60842500    0.17049100
Ge   18.02162000   11.16663000   17.21734000     -0.666812    0.80739700   -0.20122000
Ge   13.35769000   15.26129000    8.37044000     -0.149407   -0.24340700   -0.18429700
Ge   17.13022000   15.50471000    0.94937000     -1.759101   -0.12157600   -1.98137900
Ge   15.89223000    3.42743000   10.18710000     -0.159181    0.46078000    0.01465900
Ge   18.66875000    2.59165000   18.89930000     -0.128695    0.24085300    0.41568200
Ge    1.84741000    4.78695000    9.83007000     -0.361459   -0.00341800    0.70248400
Ge   20.67145000    3.67694000    4.51852000      0.398907   -0.48163300    0.35000200
Ge    0.03611000   10.75258000    9.64246000      0.440816   -0.35761400    0.40743600
Ge   21.36356000    9.59421000   18.61810000     -0.304176   -0.31696800   -0.02495900
Ge   20.25385000   14.84965000    7.78284000      0.864633    0.54982400    0.16459300
Ge    4.29848000   15.96826000   17.31276000      0.210045   -0.13664200    0.11451600
Ge   19.19417000    0.27699000   10.05710000     -0.837993    0.85147300   -0.22586800
Ge   22.11626000   19.34647000    3.20699000     -0.303107    0.52541100    0.12381000
Ge    4.11592000    7.63892000    6.51242000     -0.326417   -0.32979800    0.02770200
Ge    2.15014000    8.08139000   18.26976000     -0.901716    0.85724000    0.24854200
Ge   20.91842000   10.35808000    4.29864000      0.817287   -0.60190900   -0.05622400
Ge    4.56697000   13.32186000   14.66313000     -1.020531   -0.46075500   -0.12753500
Ge    4.29221000   17.44183000    4.60093000     -0.034584   -0.19451400    1.19265900
Ge    0.26538000   18.71755000    0.49500000      0.761081   -0.40222800   -0.33022500
Ge    3.17705000   18.27891000   10.27023000     -0.021272   -0.01543300   -1.75083400
Ge    2.03712000    1.21509000   17.50631000      0.494354    1.00114200    0.45507700
Ge    9.94874000    2.80176000    7.88308000     -0.242897   -0.09517700    0.17441200
Ge    6.86164000    6.08790000   16.29604000      0.800416   -1.22235400    1.03922700
Ge    8.92315000    9.28127000    4.04422000     -0.832561    0.15478100   -0.00009200
Ge   10.34128000    7.67725000   16.39711000     -0.483360   -0.32508200    1.15215400
Ge    7.48558000   15.76002000    9.99911000      0.015549   -0.55278400   -0.87065800
Ge    9.71952000   14.67258000   16.49928000      0.428669    0.23628500    0.09902600
Ge   10.54071000   21.70719000    6.79483000      0.000611   -0.17079800    0.51260300
Ge   10.95261000    1.17943000   13.39876000     -1.002322   -0.07552000    0.05707900
Ge   11.82270000    7.22567000    5.32105000      0.929727    0.48713200    0.05126200
Ge   15.16058000    3.19288000   16.56402000      0.693056   -0.51833100    0.51412900
Ge   15.19128000    9.04284000    6.06807000      0.138494   -0.54539200    0.79729800
Ge   14.77142000   13.04856000   15.82993000      0.136224   -1.30741400   -0.33081800
Ge   11.94099000   14.48025000    4.95734000      1.105766   -0.28872200    0.72882800
Ge   15.11941000   18.65918000    0.05256000     -0.350945    0.60748900   -0.14358800
Ge   14.20699000   21.48198000    8.52478000      0.507283    0.43004500    0.48894700
Ge   17.78060000   21.70239000   13.59528000      0.200134   -0.47299200   -0.38859200
Ge   21.94926000    4.26523000    8.15918000      0.340978    0.99545700    0.62758200
Ge   19.88537000    5.84998000   13.57912000      0.168157   -1.47417400   -0.79647000
Ge   18.87511000   11.10026000    7.68908000      0.230857   -0.11035100    0.47006700
Ge   20.98466000   15.30467000   16.51864000      0.637244   -0.72533700    0.42262000
Ge   18.04800000   16.61689000    5.94141000      0.248775   -0.06175300   -0.18393300
Ge   16.90309000   17.82761000   15.95424000     -0.433161    0.30717300   -0.53631900
Ge   22.03739000    0.65950000    6.26332000     -0.077467    1.14937300    0.11255200
Ge   18.95121000   21.23615000   17.44432000      0.012007    0.61668300    0.78386700
Ge    6.10191000    1.95815000    6.68023000      0.474235   -0.10207200    0.41732800
Ge    4.45474000    2.61198000   13.26194000     -0.911237   -0.03897300   -0.41745700
Ge    0.57117000    9.62789000    6.08557000     -0.456790   -0.42865700    0.36256600
Ge    2.84296000    7.18079000   11.52586000      0.152047   -0.36517400   -0.58853900
Ge    0.75508000   15.46000000    3.68445000      0.190038    0.72791200    0.36514500
Ge    2.24525000   17.65365000   15.12636000      0.307163   -1.72447800    0.85444200
Ge    3.88302000   21.99812000    9.88843000      0.404666   -0.38143100   -1.01754500
Ge    8.78792000   19.36946000   15.74488000     -0.861431   -1.22263900    0.54511800
Ge    6.29738000    3.44472000    2.44022000      0.195210    0.15507000    0.30200300
Ge    9.65431000    3.27608000   17.19322000     -0.842114   -0.69312800   -0.77918900
Ge    8.16543000    6.44399000    4.42229000     -0.502764    0.42543400    0.45738600
Ge    8.31723000    9.75431000   13.42687000     -0.330023   -0.72707500   -0.03616800
Ge    5.23995000   14.38182000    4.29131000      0.523344    0.49798500   -0.40804000
Ge   11.56129000   12.13365000   14.53078000      1.232412   -0.12560900    0.52709900
Ge    7.48997000   20.56837000    4.26248000      0.933101   -0.18648200    0.57170100
Ge    9.78500000   16.40360000   12.97205000     -1.866031   -0.54578300   -0.48498400
Ge   12.29339000    2.26671000    4.35789000      0.826452   -0.79832500    0.98827000
Ge   12.57624000    4.39183000   14.66586000      0.144160   -0.20186500   -0.39310400
Ge   17.78607000    3.84297000    5.74568000      1.094631   -0.05576400    0.15859300
Ge   14.18384000    9.11177000   14.44546000      0.372301    1.19716200   -0.76521800
Ge   15.20412000   13.49680000    3.31338000     -0.412929   -0.23689400   -0.54736900
Ge   13.04264000   15.44110000   11.79829000      0.797786    0.04815400   -0.76288300
Ge   10.41368000   18.56888000    4.44828000     -0.521366   -0.37693500   -0.08294200
Ge   11.70200000   20.29029000   16.93108000      0.786035   -0.78491100    0.23561300
Ge    0.29851000    6.20677000    6.26392000      0.004740    0.04051900   -0.44697900
Ge   22.32183000    4.15643000   13.80288000     -1.046616   -0.56380700   -2.33668100
Ge   19.78027000    7.71752000    7.61655000      0.048828    0.51477100   -0.64401600
Ge   16.93269000   10.74187000   12.53097000      0.171609   -0.47495500   -1.27343800
Ge   20.19932000   16.80340000    0.48213000      0.494004   -0.27562800    0.25000400
Ge   19.74415000   15.47997000   13.73854000     -0.617412   -0.41451100    0.95117000
Ge   18.98797000   20.85906000    5.04795000      0.352340   -0.05105400    0.17877900
Ge   21.42474000   20.66318000   13.63387000     -0.175818   -0.00524800   -0.25871900
Ge    2.78692000    2.05014000    3.11891000      0.287356    0.08231700    0.08345900
Ge    5.74820000    0.71199000   11.87336000     -0.446375   -0.26982400    0.04891300
Ge    3.78173000    9.44116000    3.60222000      1.755585   -1.53334700    0.63045000
Ge    6.73571000    4.14443000   14.27027000      1.663669    0.89372700   -0.63392700
Ge    4.39253000   12.68153000    1.18558000      1.200682   -0.23630900    0.11384100
Ge    3.75991000   10.33850000   12.44559000      0.124142    0.83328000   -0.13040600
Ge    3.66591000    0.40651000    7.54816000     -0.023495   -0.59505500   -0.12977000
Ge    7.37194000   19.99517000   12.54417000     -0.099104   -0.17396200   -0.50922700
Ge    9.83453000    3.61258000    2.73903000     -1.093280   -0.25780100    0.40719700
Ge    9.50171000    4.58839000   11.62892000     -0.208431    0.37637600    0.25930800
Ge   11.91543000    8.42536000    1.66212000      0.199090   -0.44298700    0.18250700
Ge   11.03748000    8.41845000   12.23588000     -0.227509    0.31874800   -0.07873900
Ge    8.63103000   13.61603000    2.21200000     -0.681699   -0.49564200   -0.01123200
Ge    7.89702000   12.41034000   10.84455000     -0.235612    1.83763300   -0.37967900
Ge   11.23871000   21.32154000    1.97896000      0.600345    0.01546500    0.20588600
Ge   11.44011000   19.06421000   12.67341000     -0.320034    2.56649000   -1.42843800
Ge    0.39961000   22.09387000   16.38939000     -1.793911    1.38662200   -1.01015500
Ge   12.60499000    1.25213000   10.15704000      0.124045    0.27992600    0.14260700
Ge   16.25637000    6.86713000    1.80625000     -1.195696   -0.14720600   -0.21248800
Ge   15.13634000    6.30241000   11.52779000      0.175232   -0.20872700    0.23243500
Ge   18.16895000   12.11073000    1.34384000     -0.884810   -0.90271800    0.52300100
Ge   16.19668000   16.59531000    8.51703000      0.475017    0.43992100    0.64613100
Ge   17.21105000   20.97969000    2.33024000     -1.325216   -0.37776800   -0.71752800
Ge   15.31466000   19.75699000   10.85599000     -0.329711    0.88535200   -0.44354200
Ge   20.98716000    1.30595000    2.19447000      0.445255    0.09101900    0.27239500
Ge    0.34450000    1.29657000   10.70286000      0.228949    0.18340500    0.00890800
Ge   21.77133000    7.84303000    2.08426000      2.183225   -1.20398000   -0.74042800
Ge   21.79883000    8.73611000   13.91735000     -0.001490    1.08006400   -0.18407000
Ge   20.52850000   12.93338000    0.76954000      0.786520   -0.61851100   -1.19781600
Ge    0.44996000   15.49145000    9.19419000     -0.587463   -0.47860700   -0.14653100
Ge    4.21060000   20.56905000    4.62394000     -0.332833    0.20005100    0.50596700
Ge   20.10547000   19.32865000   11.05697000     -1.242869   -0.52516200    0.57885200
Se   21.15027000    0.24544000   18.77575000      0.554439   -0.30031400    0.31171600
Se    1.57266000    1.16385000    8.44715000     -0.619998    0.07161300   -0.16350800
Se    2.06072000   10.57029000    2.53973000     -0.168131    0.98157300    0.07867600
Se    0.32072000    6.46444000   13.00509000     -1.239484    0.30565700   -0.85268400
Se    0.00172000   13.29398000   17.97487000      0.011249   -0.24200700    0.67738200
Se    1.17212000   13.11806000    9.47306000      0.654869    0.12293900   -0.00256400
Se    1.60503000   17.35993000    5.10252000      0.494712    0.24492300   -0.48256900
Se    2.26518000   16.09910000   10.65981000     -0.083204   -0.21833800   -0.20960800
Se    4.35295000    2.23801000    1.06512000     -0.336413   -0.28714100   -0.08058200
Se    6.80769000    3.53244000   11.34582000      0.307327   -0.15703400    1.13920200
Se    6.35159000    6.06784000    2.11429000      0.482776   -0.09385200   -0.11285300
Se    8.52490000    7.16940000   12.30682000      0.500393   -0.11193000   -0.11504100
Se    7.69141000    9.90749000    0.68215000      0.275075    0.23810500    0.19805400
Se    6.16369000   11.29105000   14.10098000     -1.445635    0.07890300   -0.54444100
Se    5.79202000   20.56633000    2.54524000     -0.900323    0.46017400   -0.81907500
Se    9.32995000   18.53634000   11.16293000     -0.105251   -0.16089100    0.43558300
Se   11.45418000    1.76500000    0.61889000      0.244479    0.37089100    0.06984100
Se   13.11647000    2.01742000   14.01594000      0.146234    0.52319400   -0.34950200
Se   12.32817000    7.41293000   18.34691000     -0.567645   -0.27220100    0.23811700
Se    9.76242000   10.11970000    9.79848000      0.109056   -0.72244600   -0.03504600
Se   12.95934000   14.92731000    2.37270000      0.740196   -0.44443200    1.19976800
Se   12.60172000   10.57737000    7.82390000      0.292283    0.18185300    0.22188400
Se   14.12746000   17.65304000    2.33243000      0.676659    0.06141000    0.62883200
Se   12.93160000   17.31318000    9.59671000     -0.037037   -0.19253500    0.83515400
Se   18.53236000    4.24526000    2.48566000      0.128416   -0.89825500    0.44243900
Se   16.64518000    1.79501000   13.35754000     -2.891133   -0.86688900    0.53006000
Se   15.75883000    8.46080000   18.83181000      0.136381   -0.42489800   -0.61704700
Se   17.84323000    5.41327000   12.08561000     -0.424344   -0.07940500    0.86709200
Se   18.89870000    9.69287000    0.60901000     -0.557530   -0.22599300    0.76524800
Se   16.35487000   14.71389000    6.63962000      0.795737   -0.18281000   -0.18709900
Se   20.92226000   20.13810000    0.78565000     -0.642531   -0.16356600    0.14926900
Se   17.17816000   19.37235000    7.77273000      0.993977   -0.24729200    1.03268700
Se    1.06855000    0.52420000    2.25338000      0.072141    0.55217600   -0.16724400
Se    6.51603000    7.66268000    9.40993000     -0.031849   -0.76286100    0.34065800
Se    6.68881000   10.42593000    2.79726000      0.305562   -0.39299100   -0.69672900
Se    4.61435000   10.75374000    9.43656000      0.189816   -0.18694000    0.05799700
Se    3.33571000   14.82557000    1.56308000     -0.312609    0.54710100   -0.06854300
Se    2.67972000   12.96041000   12.50816000      1.024387   -0.02456900   -0.02514500
Se    3.75939000   21.80872000   17.98483000      0.561699    1.45516300    0.56004200
Se    5.92465000   20.49686000    9.79840000     -0.098928   -0.53936400    1.17922400
Se   11.79110000    5.03957000    3.47518000      0.475271    0.45752700   -0.07691700
Se    7.29835000    3.93306000    7.58656000      0.698829    0.76442300    0.11030900
Se   11.77574000   10.89021000    1.69983000     -0.450376    0.38455800   -0.12194800
Se    6.75201000   10.41644000   10.84947000     -0.811803   -0.59254800   -0.68813800
Se    9.44890000   15.79840000    1.65618000      0.887256    0.46089200    0.40720800
Se   12.77708000   12.78624000   12.27842000      0.601453    0.03647900    0.74770300
Se    9.78941000   21.42285000   18.11576000      0.435608    0.01535300   -0.17593000
Se    8.10805000   22.42862000   12.12679000      0.618234   -0.67491800    0.30005800
Se   15.01696000    5.22189000   18.93293000     -0.083288    0.48322000    0.54046700
Se   16.61621000    6.11950000    8.88804000      0.068846    0.60414300   -0.14463900
Se   14.86905000   11.04318000    0.40631000      0.348730    0.50780200   -0.17185700
Se   15.18109000   12.41172000   13.32933000     -1.128420    0.35921700   -0.00675600
Se   18.74016000   14.96818000    2.54469000      1.247670   -0.09269000    1.37998000
Se   16.23041000   11.52600000    9.60493000      0.448214   -1.23220600    0.17925000
Se   17.30083000   22.41548000    0.47910000      0.473067    0.34929100   -1.00009100
Se   15.42803000   20.22463000    6.71973000     -1.259900    0.41440500   -1.44609900
Se    0.19382000    3.49359000    1.43145000     -0.178744    0.03042000    0.16963300
Se   21.65614000    4.73134000   10.82639000     -0.695036    0.10278500   -0.07129900
Se   21.29417000    5.77611000    0.11609000      0.210834   -0.02165800   -0.01357200
Se   20.82263000   10.89681000   12.77923000      0.526301   -0.16909800   -0.01288800
Se   19.16051000   14.70908000   18.30368000      0.762664   -0.19640400   -0.93306600
Se   21.13255000   16.29911000   12.07399000      0.216848    0.45508200   -0.90831300
Se   21.19069000   21.72866000    3.82976000     -0.351141    0.03425500    0.33138600
Se   17.56973000   20.96610000   10.94252000      0.980409   -0.10369500    0.87067900
Se    3.92941000    5.38394000    8.57362000      0.561133    0.01196100   -0.05156000
Se   21.85342000    2.55815000   18.15870000      0.196801    0.53008700    0.76857100
Se    2.11389000   10.05535000    8.07919000      0.056065   -0.43886900    0.25176200
Se    1.01722000   10.64853000   17.63794000      0.573938    0.04225400   -0.12488600
Se    3.94408000   18.17020000    7.37729000     -0.730783    0.19012600    0.63526300
Se   22.53436000   18.07299000   15.26155000     -0.611949    0.19690600   -0.68810000
Se    0.61483000   18.74527000   12.39509000     -0.221053    0.50863500    0.58539600
Se    1.92849000   20.66905000   17.28400000     -0.571539   -2.01312700    0.38983000
Se    3.78704000    4.59610000    5.88778000     -0.107128   -0.07483600   -0.59203500
Se    5.09405000    5.95647000   18.17806000      0.075624    0.77385400    0.25005700
Se    5.48460000    9.60639000    6.07521000     -0.630705   -0.12676000    0.20317600
Se    3.39500000    6.89311000   16.69989000      0.863847   -0.46393000   -0.53899700
Se    6.61804000   14.29441000   11.84400000      0.066062   -0.66245400   -0.12945700
Se    6.70861000   17.07468000   18.36835000     -0.407785   -0.28546300   -0.25938400
Se    9.24539000   18.73040000    6.90332000     -0.000219   -0.07909800   -0.66753500
Se    6.73200000   19.41937000   18.12934000     -0.010493    0.14032500   -0.38303500
Se   10.10373000    2.03657000   10.64631000      0.999425    0.98299400   -0.33387700
Se   11.82133000    4.17237000   17.08334000      1.455751    0.46443700   -0.00985900
Se   13.63314000    7.19360000    7.15055000     -0.096097    0.06594200   -0.22101000
Se   14.00746000   10.77700000   16.77850000      0.002720    0.63948500   -0.54970500
Se   11.27199000   14.15645000    7.79129000      0.322754    0.50285800   -0.77915600
Se   13.90393000   15.79941000   17.48861000      0.067128    0.72537500   -0.33929300
Se   12.58649000    0.78220000    7.65044000     -0.006721    0.35189200   -0.64945200
Se   13.92763000   21.75259000   18.34243000     -0.124693    0.17986000   -0.13447600
Se   13.53093000    3.83943000   10.65424000      0.411079    0.02153500   -0.08808100
Se   21.02945000    2.73661000   15.68075000      0.046596   -0.30599400   -0.11630200
Se   18.67037000   11.35725000   10.50521000     -0.198589   -0.12624200   -0.12067900
Se   17.34912000   10.41144000   14.86336000      0.331497   -0.14761800    1.77300400
Se   14.04772000   16.21584000    6.11139000     -0.641198    0.05723000   -0.38544600
Se   20.45294000   13.22354000   14.57737000     -0.083700    0.73755500   -0.13821200
Se   19.20670000   21.22378000    8.08756000     -0.317081   -0.48697600   -0.84726700
Se   18.51589000   18.97285000    2.77549000      1.676082    0.10431600   -1.60388900
Se    4.99799000    2.14463000    8.88662000     -0.140615   -0.46079500    0.13089500
Se    3.17000000    3.49204000   18.31224000      0.044849   -0.81051800   -0.00169100
Se    9.69800000    9.90331000    6.59643000      0.003009   -0.81617000    0.89383100
Se    4.22218000    9.82182000    0.38218000     -0.962442    0.07274300   -0.65778600
Se    6.81758000   16.87084000    5.72809000      0.188427    0.36408200   -1.05271600
Se    4.93664000   12.74645000   17.63884000      0.558542   -0.44782900    0.20965900
Se    1.34826000   19.91104000   10.30361000     -0.036032    0.11391500   -0.00527300
Se    2.59081000   17.95535000    1.84348000     -0.204543    0.17397900   -0.16518900
Se    7.97127000   22.10075000    8.23609000      0.708219    0.25574100   -0.19050700
Se    8.09880000    3.35782000    0.52608000     -0.149312    0.28906300    0.69020300
Se   10.36520000    5.14928000    8.57556000      0.561179   -0.03291700    0.50921400
Se    8.59047000    6.54751000   18.26352000      0.478087   -0.14693300   -0.42143500
Se    8.22206000   11.58155000    5.49254000      0.132924    1.01138900    0.16575500
Se    7.45388000   14.30404000   17.04424000     -0.123410   -0.17301100    0.29890300
Se   11.75242000   21.39154000   10.36275000     -0.492996   -0.76930900    0.52166400
Se   11.30465000   13.30690000   18.26963000      0.515767    1.30338200   -0.84610800
Se   16.59629000    0.31191000    8.15381000     -0.929419    0.28495800   -0.31050900
Se   15.46938000    2.84713000    0.20030000      0.816618   -0.08605600   -0.29946400
Se   16.14273000    4.02073000    7.61795000     -0.386091   -0.05081900    0.78491300
Se   14.31391000    7.06023000   15.55287000      0.085277   -1.71936800    0.88724400
Se   16.14016000    8.84218000    8.78138000      0.464376    0.73640500   -0.39803000
Se   15.11961000   13.55941000    0.60395000     -0.077970    0.18218000   -0.46130300
Se   12.92388000   18.47453000    5.63090000      0.235648   -0.02353600   -0.00581500
Se   17.44377000   17.67332000   18.35007000      0.316240    0.31816000    0.86992400
Se   21.26483000    2.11333000    8.77908000     -1.296746   -1.58438900    0.96634100
Se    0.89728000    0.17762000   13.65649000     -0.506420   -1.00412300    0.32653200
Se   19.71991000    8.19592000   10.04166000     -0.071595   -0.70211000    0.35548900
Se   22.40105000    6.39394000   17.00830000      0.049904    0.54406500    0.48626200
Se   21.53797000   11.50776000    7.58790000     -1.044559    0.46764800   -1.20670700
Se   20.41905000   11.51706000   17.16392000     -0.026561   -0.20573800   -0.19338100
Se   18.96942000   17.09252000    8.23903000     -0.002442   -0.50554300   -1.04601000
Se   19.51081000   17.15421000   15.61678000      0.139999   -0.07506400   -0.12350500
Se    3.37644000   21.81411000   12.09468000      0.065953    0.26686700    0.74049800
Se    2.28804000    1.71722000   14.68583000      0.630779    0.89354300    0.95565300
Se   22.08367000    7.66095000    8.62545000     -0.219273    0.02502400   -0.34114000
Se    0.79244000   10.47281000   15.26300000      0.527326   -0.25294800    0.33162400
Se    3.71835000   15.34573000    6.63379000      0.503088   -0.60542800    0.18934300
Se    2.62632000   13.59452000   16.41963000      0.140170    0.15566700    0.02194700
Se   22.40636000   17.27736000    7.45041000      0.459075    0.14873300    0.13415400
Se    3.25897000   19.46837000   14.24439000     -0.349406    2.06997800   -1.73374700
Se    6.85070000    0.56590000    2.61853000     -0.884487   -0.17571700    0.21882100
Se    7.49500000   22.34636000    0.36685000      0.051913   -1.56024200    1.42797400
Se    9.80111000    7.30381000    6.75853000     -0.734525    0.91238700    0.06144100
Se    4.63572000    4.25424000   15.32950000     -1.985714   -0.41847000    0.20871800
Se    5.49495000   11.97746000    4.96688000     -0.438231    0.82455500   -0.78388200
Se    9.39173000   13.13631000   14.25303000     -0.208373    0.92023300   -0.07880200
Se    7.73754000   18.02909000    3.62447000     -0.249021   -0.29311500    0.94281500
Se    7.88359000   17.13043000   14.63520000      1.178962    0.95554400   -0.18481900
Se   14.42187000    0.49481000    4.61130000     -0.943970   -0.37681700   -0.45896400
Se   13.61526000    0.87018000   16.61199000      0.243335   -0.67596000   -0.32676100
Se   12.66559000    9.87507000    5.16847000      0.749382   -0.12306100    0.04154700
Se   11.01488000    5.99203000   13.54677000     -0.045564   -1.07672100    0.69402100
Se   14.21955000   12.99468000    5.51712000     -1.283336    0.09584600   -0.26730900
Se   12.83834000   14.48140000   15.37811000      0.242161   -0.23365600    0.22590100
Se   11.55200000   18.88864000    7.57518000      0.057898    0.20632500    0.17108000
Se   12.21633000   18.65875000    1.41957000     -0.856393   -0.00320200   -0.22586300
Se   19.73935000    1.65908000    6.21227000     -0.381331   -0.20145600   -0.33021600
Se   19.16487000    1.35696000   16.79262000     -1.025352   -0.87956300   -1.13079500
Se   19.77184000    5.09226000    6.99397000     -0.220145   -0.01898900    0.33177600
Se   19.03483000    5.88755000   15.86266000     -0.320351    0.09860200    0.87521300
Se   18.95870000   11.73038000    4.15737000     -0.432080    1.10180500   -0.33219800
Se   17.48109000   14.87871000   13.41742000     -0.405814   -0.09180800    0.25323600
Se   17.14197000   18.58181000    4.51292000     -1.373701   -0.36731000    1.51190400
Se   16.84274000   20.58872000   16.45815000     -0.249773   -1.15176200   -0.68912600
Se    2.13804000    7.66057000    4.82418000      0.186537    0.32698200    0.30507100
Se    2.38841000    6.57978000   13.92486000      1.382635   -0.06849300    0.57343200
Se    1.51989000   11.53044000    4.79458000      0.162639    0.63746400   -0.64434800
Se    3.85063000   10.30567000   14.96185000      0.134035    0.18590300    0.13386800
Se    5.89878000   14.62191000    7.74728000     -0.336299    0.08570800    0.18229700
Se    3.45335000   18.35581000   17.26582000      0.441992   -1.76794000    0.27820700
Se    2.56448000   20.43229000    6.96767000     -0.450573   -0.08218800    0.12517600
Se    5.52897000   21.91049000   14.81617000      0.581944    0.00551300   -0.14314700
Se    9.10762000    0.84490000    5.66921000     -0.565522    0.02886800    0.09588900
Se    7.16840000    1.58553000   18.06584000     -0.697789    1.53867900   -1.54159500
Se   13.52087000   11.03469000   10.10203000     -0.088936    0.37979600   -0.41251700
Se    9.86692000   10.36007000   17.13021000      1.218024   -0.79517000    0.52601900
Se    8.64797000   13.55173000    8.87321000     -1.224414    0.25726700   -0.11041700
Se   12.01989000   17.06406000   13.52805000      0.866810   -1.76879700    1.99728400
Se   11.62872000   20.78436000    4.64328000      0.216703    0.44639600   -0.75686400
Se   10.71280000   17.51545000   17.36706000     -0.699682    0.67915600   -0.58004200
Se   11.31237000    4.83368000    6.26498000     -0.024723   -1.25568900    0.13625200
Se   17.79085000    4.54139000   17.40515000     -0.506271   -0.57694800   -0.04603600
Se   17.23253000    7.63472000    5.12740000     -0.049835    1.49670900    0.54157300
Se   16.52354000    8.11385000   13.18724000     -0.589513    0.36011300   -0.59652700
Se   17.13270000   10.99829000    5.63272000      0.246323   -0.19740800   -0.21771900
Se   13.81649000   18.12492000   16.61558000      0.612122   -0.76309500    0.08217200
Se   15.81512000    2.34451000    4.96692000     -0.727510    0.06959300   -0.26254300
Se   18.55292000    2.62747000   12.91417000      3.049521    1.05896900   -0.52860700
Se    0.33505000    3.23426000    6.13841000      0.608604    0.13275000   -1.47716200
Se    0.73167000    4.31293000   15.89040000      1.007401    0.26487500    2.09961500
Se   18.19179000   13.57637000    8.06919000     -0.464264   -0.11835400   -0.07708900
Se    0.14995000   13.13914000   13.40712000      0.237321   -0.04662500    0.48363600
Se   20.01936000   15.25735000    5.29476000     -0.018139    0.06779600   -0.46138900
Se   19.20785000   19.44187000   13.62497000      0.301858    0.44067600   -0.53867000
Se   21.63138000   19.07094000    8.92901000      0.369394   -0.30831600   -1.08669100
Se   21.18978000   20.35847000   16.16020000      0.035668   -0.04640100    0.24438100
Se    4.44133000    0.84732000    4.82559000     -0.735086   -0.15019800   -0.79902700
Se    7.29222000    1.81709000   14.84275000     -0.307766   -0.51568100   -0.16473900
Se    2.26478000    6.68170000    1.30590000      0.007872   -0.04441300    0.23401700
Se    5.44441000    7.81200000   11.63260000     -0.334658   -0.45262900   -0.04809200
Se    1.11778000   13.79506000    1.86394000      1.149451    0.09069200   -0.40912000
Se    5.26358000   15.84830000   14.73528000      0.668685   -0.30363800    1.29987800
Se    5.00828000   17.86744000    2.19461000      0.097618    0.15425200    0.12314500
Se    4.77666000   18.25683000   11.96849000      0.990388   -0.20472700    0.12964700
Se    9.91000000    0.97885000    3.43861000      0.519008    0.73070400   -0.46379500
Se   10.66459000    0.69058000   16.77181000      0.143014    0.45715100   -0.10678900
Se    9.50123000    7.21955000    2.34240000      0.908854    0.18174800   -0.57327500
Se    7.03901000    8.14795000   15.38023000     -0.100062    1.14843600   -0.44755300
Se   10.67160000   11.15518000    4.35149000     -0.034295    0.36306400   -0.52744200
Se    9.77795000   11.45912000   11.99069000      0.599191    0.10982500    0.10825700
Se    9.13753000   20.09415000    1.68311000     -0.259302   -0.22686300    0.66289700
Se   16.05074000   18.12994000   12.41436000      0.509325   -1.26160100    0.54178800
Se   13.75806000    3.73953000    6.00568000     -0.294972    0.08462300   -0.30507900
Se   16.50630000    0.85556000   15.90395000     -0.709481    1.00443000    0.28540800
Se   16.45400000    5.63001000    4.51495000     -0.691145   -0.89445800   -0.59424800
Se   14.18379000    8.77544000   11.00569000     -0.715230    0.70897800   -0.29035100
Se   15.68510000   11.06302000    2.79574000      0.527324    0.01392300    0.38321200
Se   16.98162000   13.75600000   16.53863000     -0.450499   -0.44562000    0.31153700
Se   16.41101000   15.73599000    3.32689000     -1.151400    0.16559100    1.25449800
Se   14.71532000   21.37031000   12.79399000      0.007001    0.27767700   -0.11354200
Se    0.04831000   20.90323000    6.48835000      0.648317   -0.83908700    0.05315400
Se   20.36997000    0.91271000   13.41649000     -0.541384   -0.36076300   -0.29257400
Se   21.13395000    6.20615000    4.23649000      0.516349    0.90606700    0.12092700
Se   19.42502000    8.04113000   14.25680000      0.326153    1.45588900   -0.24404900
Se    0.20331000   14.36837000    5.62816000     -0.123272   -0.71873900    0.97333100
Se    1.23445000   14.98714000   15.13749000     -0.571189   -0.02940300   -1.05027500
Se   20.72990000   17.57294000    4.46760000      0.223116   -0.48131000    0.00462100
Se   21.16541000   21.58694000   10.51288000      1.560550   -0.41342500    0.79564600
Se    2.33562000    4.39835000    3.61943000      0.360510   -0.47368600    0.26319400
Se    2.28409000    3.02271000   11.67757000      0.075725    0.72293500   -0.19945100
Se   22.05070000   10.78461000    1.96033000     -0.804674    0.70406400   -0.38598600
Se    1.62485000    9.30266000   11.82879000     -0.495521    0.15483200   -0.10797800
Se    0.40596000   16.66750000   17.97955000     -1.143435   -0.07403800    0.43809700
Se    4.03970000   15.96938000   12.77707000     -0.782971    0.30882800   -0.39897800
Se    1.75819000   20.31878000    2.51368000      0.784739    0.30720400   -0.05268600
Se    5.22260000   19.44706000   15.49381000      0.635700    0.52793800    0.67226100
Se    8.11943000    4.05679000    4.97831000      0.984870   -0.51497000   -1.60921200
Se    9.37741000    3.33671000   13.99254000      1.145749   -0.13317600    0.27561100
Se    5.46493000    6.14962000    4.82548000     -0.886965   -0.19283600    0.56678400
Se    8.17870000   11.05099000   15.62097000     -0.165762    0.48722300    1.05033000
Se    6.43857000   14.40852000    1.41107000     -0.548876   -0.23430400    0.39035400
Se   11.00234000   14.47956000   10.73137000     -0.249479    0.62767100    0.36667100
Se    6.10982000   20.77693000    6.82532000     -0.637507    0.15089700   -1.77592800
Se   10.62614000   20.47490000   14.57435000     -0.369696    0.47323700   -0.65839900
Se   13.00791000    3.22603000    2.17183000     -0.318511    0.52607700   -0.00176800
Se   12.13571000    6.43481000   11.13503000      0.009306   -0.90837800   -0.26047800
Se   14.12050000    8.29757000    2.98074000     -0.476332   -0.35772500   -0.20162500
Se   11.26470000    9.26404000   14.57333000      0.146763    0.58642200   -0.26257200
Se    8.04729000   14.01277000    4.60566000      0.382138    0.07593700   -0.02751900
Se   15.19297000   14.34838000    9.86323000     -0.386016    0.25065200   -0.30235900
Se   14.74069000   20.37091000    2.40611000      0.607883   -0.33003800    0.11313600
Se   13.76005000   19.42131000   13.70964000      0.458435    0.31243400    0.27934100
Se   18.56483000    6.10467000    1.21649000      0.402713    0.45153700   -0.54248100
Se   14.90722000    5.07400000   13.98021000     -0.202977    0.99415100    0.47561500
Se   19.75281000    8.50045000    2.95582000     -2.201667    0.18610600    0.57985100
Se   19.96515000   14.80926000   10.49774000      0.563867   -0.63092800    0.75117600
Se   21.28767000   14.80526000    2.10046000     -0.452099    1.18652800    0.18343200
Se   17.77362000   17.39287000   10.76449000     -1.263532   -0.28178000    0.55881300
Se   17.66505000    0.08237000    3.85187000      0.611777    0.55739500    1.09833900
Se   16.37356000    1.01362000   10.38651000     -0.336581    0.01298200    0.06008300
