384
22.54784000 22.54784000 18.93360000
Ge    5.35726000    3.91814000   10.93323000     -0.320983    0.30725800    0.11204300
Ge    4.73672000    6.94660000    1.68827000     -0.402251   -1.30458400    0.77721100
Ge    4.09993000   11.34449000    7.80569000      0.252907   -0.80681700   -0.85358100
Ge    6.65422000   10.02869000   17.79821000      0.173494   -0.18307500   -0.51472100
Ge    4.70113000   14.71028000    8.91006000      0.865066    0.57616000    1.33675400
Ge    8.23931000   17.22242000    1.04288000     -0.888648    0.22918100    0.10109600
Ge    8.39351000   19.33373000    8.64352000     -0.659712    0.04249200   -0.40935200
Ge    5.32504000    0.40402000   18.75618000     -0.817912    0.92731700   -0.14587300
Ge    7.72173000    5.23678000    9.34447000      1.953559    0.78636100    1.19101100
Ge   11.54332000    5.52214000   18.06797000     -0.734905    0.97309300    1.18662300
Ge   11.88107000    7.45304000    8.93939000     -0.364417   -0.29019300    0.44866600
Ge   10.35621000   12.37335000    0.27494000      0.849342   -0.10505200   -0.61792600
Ge   10.14147000   16.76180000    8.88857000     -0.131241   -0.90900200    0.10962000
Ge   12.21420000   15.78834000    0.66693000     -0.136416    0.36398000    1.33303500
Ge   10.18509000    0.07305000   10.42658000      1.117415    0.96653100   -1.58471700
Ge   15.54930000   21.46059000    0.23119000      1.173193   -0.46987800    0.54450700
Ge   17.66990000    5.31232000   10.06369000      1.180809   -0.27953500   -0.20560200
Ge   18.51672000    7.09831000   18.00737000     -0.566984   -0.24887700    0.38436300
Ge   18.89325000   14.75355000   10.73901000      0.172079    0.40775600    0.29371100
Ge   18.64840000   11.36743000   17.76190000     -1.283635    0.21294100    0.40673300
Ge   13.86497000   16.97662000    8.84254000      0.503809    0.65680200    0.03681000
Ge   16.75300000   14.71891000    0.26480000      0.728276    0.76388500    0.69883600
Ge   16.16386000    3.44771000    8.83778000     -0.363402    2.40989200    2.00181700
Ge   19.12424000    3.77088000    0.21911000      0.096426    0.79761400   -1.14393100
Ge    0.64638000    5.24928000   10.40088000      1.416902   -0.07284700   -0.61362800
Ge   21.90495000    4.64642000    3.01399000     -1.224741    0.16246400    0.27738500
Ge    0.61249000   10.39309000    9.32267000      0.035225    0.15786300    0.05048000
Ge   21.41878000    9.14564000   18.18440000     -0.078330   -0.27892900    0.76420800
Ge   21.17321000   15.32266000    9.07497000      0.361322    0.38507200    0.19260700
Ge    4.01681000   15.48218000   17.74569000      0.173642   -1.85257900    0.18943900
Ge   18.75338000   22.39793000    9.99054000     -0.013924   -0.69372500   -0.02011900
Ge   20.56907000   20.72323000    1.02550000      0.624869   -0.09490800    0.70853000
Ge    2.30723000    6.33931000    8.22352000     -0.244221   -0.11551300   -0.33897300
Ge    1.85472000    7.15400000   16.96872000     -0.874697   -0.30384200   -0.26016300
Ge   20.49267000    8.84447000    5.12632000     -0.119538   -0.16620900   -0.03148200
Ge    3.60044000   12.98540000   15.30723000      0.218418   -0.78155400    1.68757700
Ge    5.36605000   19.07457000    4.68497000     -0.456218   -0.98441300    0.68368500
Ge    0.35244000   18.35582000   18.03550000     -0.383946   -0.05815300    0.11303700
Ge    4.33624000   19.43465000   10.31845000     -0.419503    0.09539500   -0.84328300
Ge    2.59316000    1.72323000   17.11633000     -1.072862    0.11312700    0.44305500
Ge    9.88554000    3.66767000    6.89714000     -1.004309   -0.08696800   -0.99171300
Ge    7.07489000    6.43379000   16.13655000     -0.479784   -0.24642800   -0.25987700
Ge    8.09135000   11.34488000    4.12265000     -0.251190   -0.36238900   -0.18228600
Ge   10.02347000    8.20385000   17.04634000     -0.732603    0.27841600    0.48844900
Ge    6.45156000   17.35539000    8.30890000     -0.133972    0.98429800   -0.97469600
Ge    9.57583000   15.66950000   16.29641000      0.347845   -0.43148500   -0.18195900
Ge   10.27673000   21.50058000    6.47225000     -0.041541   -0.10641500   -0.64525700
Ge    9.99040000   21.16625000   14.33585000     -0.051403   -0.53284500    0.29318200
Ge   12.25403000    6.86435000    4.97909000     -0.524296   -0.04521300   -0.08564300
Ge   15.22166000    5.17980000   15.53405000      0.612324    0.27340900    0.81180100
Ge   13.76912000   10.79217000    6.60174000     -0.076132   -0.46967200    0.72569400
Ge   15.00750000   11.62532000   15.91417000      0.044841   -0.03769300   -0.15434700
Ge   12.86460000   15.04170000    5.58494000     -1.114323    0.61551500    0.40223000
Ge   14.62246000   18.14061000   18.88672000      0.792441    0.08450500    0.07047700
Ge   13.68701000    0.36792000    9.96053000     -0.323018   -0.33118800   -0.43350600
Ge   16.72190000   22.44797000   14.33851000      0.598293   -0.50535100    0.34852700
Ge   20.08035000    4.93383000    8.92331000     -0.244677   -0.28830800   -0.30676700
Ge   21.31822000    6.17357000   13.46787000     -0.378293    0.94450200    0.42457300
Ge   17.83800000    9.95174000    7.96679000     -0.350351    0.22857800   -0.72789700
Ge   20.63432000   15.49499000   16.99278000      0.732869    0.62324100    1.07489700
Ge   19.76198000   14.86017000    5.19104000     -0.276803    0.62996700    0.90677700
Ge   17.17345000   18.13998000   16.46314000     -0.700260   -0.02692500   -1.04725800
Ge    0.68836000    0.32253000    7.64207000     -0.333536   -0.05555400   -0.59533100
Ge   18.66014000   20.63590000   17.13373000     -0.107284   -0.26118500   -0.61325900
Ge    6.65052000    2.51285000    6.86293000     -0.377840   -0.63329300   -0.15458600
Ge    3.07441000    3.60195000   13.87845000      2.225091   -0.66185100   -0.13062100
Ge    1.50529000    8.70402000    5.89272000     -0.122072    0.37292100   -0.10717500
Ge    3.84825000    8.21888000   11.23982000     -0.101287   -0.24917300    0.04993100
Ge    0.83292000   15.53881000    4.44865000      0.428872    1.59329300   -1.93036400
Ge    2.95387000   17.13109000   15.22520000     -0.262984    0.81516400   -0.09141600
Ge    2.52992000    0.78230000    9.53599000     -0.196702    0.03684100   -0.68205200
Ge    6.68186000   18.53483000   16.65770000      0.012290    0.18836200   -0.98515700
Ge    7.69513000    3.87515000    3.17758000      0.057600    0.60405100    0.48611400
Ge   10.37259000    2.89460000   15.65082000     -1.320583    0.05173400    0.53947400
Ge    8.50714000    8.81560000    4.89822000      0.239019    0.44536400   -1.29496800
Ge    8.36237000   10.18537000   13.12204000     -1.061205   -0.36616300    0.46316000
Ge    6.84639000   14.71324000    3.81685000      0.365804   -0.51956300    1.29573100
Ge   11.89435000   12.41600000   15.58677000     -0.794946    0.63085500   -0.48948200
Ge    7.53554000   20.01601000    3.46977000      0.938811    0.09346800    0.66913200
Ge    9.25149000   16.57317000   13.40571000      0.529714    0.33487600   -0.38406400
Ge   11.86616000    1.46996000    5.26933000     -1.412365    1.93893600   -1.81762400
Ge   11.94578000    4.53532000   14.54763000      0.819572    0.38461000   -0.80212500
Ge   17.26591000    6.75583000    4.98629000      0.225310   -1.66722000   -1.18169500
Ge   13.03809000    8.44818000   14.40868000      0.964518   -0.03605900   -1.33612600
Ge   14.95708000   12.93389000    3.85324000      0.895086    0.52354700    0.25784300
Ge   13.10607000   15.94138000   12.82172000      0.306343    0.51386600    0.27718600
Ge   11.85499000   17.51141000    4.43025000      0.709876   -0.29109500    0.06375900
Ge   10.83229000   19.16304000   17.02031000      1.150162    1.44535000   -1.31635400
Ge   22.01040000    3.91539000    6.00818000      0.149567    0.20919400   -0.52491800
Ge   21.88633000    2.59676000   13.73324000      0.903278   -0.96928400   -0.03064100
Ge   18.76448000    7.19984000    7.49391000      0.098604    0.30745600   -0.56522200
Ge   18.45910000   11.17827000   13.29578000      0.589151   -0.46886400   -0.63919200
Ge   21.19613000   16.96805000    1.76824000      0.102838    0.00537800   -0.54010800
Ge   18.47408000   15.42713000   14.40233000      0.002486    0.50104500   -0.27959300
Ge   19.31871000   19.79440000    4.98520000     -0.396510   -0.02535300    0.95917800
Ge   22.49710000   20.60572000   13.67760000     -1.286793   -0.58894000    0.00048100
Ge    3.95331000    3.53211000    2.99110000      0.866317   -0.03603600   -0.20271100
Ge    5.94067000    1.93081000   12.61675000      0.571210   -0.14270000    0.65710300
Ge    4.72928000    8.22282000    4.51638000     -0.292753    0.34585400    0.25629600
Ge    7.05318000    5.45009000   13.65135000     -0.391633   -0.32999000    0.28752400
Ge    4.41732000   12.89082000    0.51352000      0.098547    0.14022200    0.50013000
Ge    3.89099000   11.65120000   11.98138000     -0.438353   -0.08680900    0.66143800
Ge    4.62767000   22.16882000    5.19803000      0.847029   -0.95032300    0.22120700
Ge    6.98362000   19.88572000   12.22367000      0.478708   -0.25838900   -0.04896600
Ge   11.59496000    3.66759000    3.39983000     -1.090462    0.25513200   -0.12968100
Ge    8.66397000    3.77724000   11.44144000     -0.896175   -0.55797500   -0.31154400
Ge   12.15829000    7.77041000    1.68635000     -1.472908   -0.42596800    0.07620100
Ge   10.68694000    6.96024000   12.62292000      1.037144   -0.03624500   -0.15601500
Ge    8.21229000   13.30287000    1.51897000      0.146477    0.40407800   -0.23218000
Ge    8.67796000   14.31863000   11.09186000     -0.124262    0.26662000    1.09525300
Ge   11.47600000   21.55068000    0.39177000      0.484661   -0.34441900   -0.33833400
Ge   11.10993000   19.62765000   12.39054000      0.238513   -0.12971800   -0.38877500
Ge   21.92692000    0.21689000   16.53192000      0.987891    1.99981400    0.97903400
Ge   12.71204000    2.72162000   11.40987000      0.221662    0.56264300   -1.04030500
Ge   16.32257000    8.93241000    1.21515000      0.084245   -0.32274600   -0.08096800
Ge   14.75550000    9.20085000   10.51758000      0.028988   -0.41602500    0.10294500
Ge   18.49617000   11.70590000    2.67658000     -0.140557    0.45212100    0.00582100
Ge   17.14606000   15.48501000    8.79728000      0.063887    0.47467200   -0.39925700
Ge   17.19534000   20.46070000    3.03922000     -0.472501    0.16976900    0.31480500
Ge   15.13285000   19.69589000   10.84994000      0.030264    0.33703400   -0.47068300
Ge   21.45630000    1.36524000    2.02037000     -0.213327   -0.76946900    0.37650200
Ge   21.23924000    0.90625000   10.60282000      0.058992   -0.46861700    0.01227100
Ge    0.85964000    8.38967000    1.94280000     -0.103197    0.06486800   -1.06600400
Ge   21.21916000    9.79201000   12.41019000      0.719038    1.40517600   -0.40798900
Ge   20.58664000   12.95365000    1.11226000      0.383827    0.07010600    0.49076900
Ge    0.80839000   13.90237000   10.83591000     -0.096338    1.54420600    0.88593900
Ge   22.48459000   19.58665000    4.40549000      0.096444   -0.03572200   -0.07704700
Ge   18.47236000   18.71220000   11.14676000     -0.703372   -0.08165700   -0.61034600
Se   20.30627000    0.57156000   18.68895000      1.324263   -0.10487500    0.11148300
Se    1.16621000    2.54227000   11.17435000      0.010547   -0.49334600   -0.70962500
Se    2.62659000    9.77273000    2.85986000     -0.269605   -0.10294300    0.30989000
Se   22.40252000    7.73701000   11.16581000      0.319655   -0.49459000    0.39186200
Se    0.59945000   12.06164000    0.54598000     -0.075645    0.50121300    0.68015100
Se    1.99537000   12.87262000    9.13344000      0.177191   -1.04697100   -0.91715700
Se    2.03871000   18.24037000    4.84373000      0.414581   -0.94425800    0.09035900
Se    1.82877000   16.46119000   11.16851000     -0.930030   -0.39056200   -0.22728500
Se    6.13017000    2.10325000    2.05259000     -0.140881   -0.72328800   -0.23360500
Se    7.24519000    1.73315000   10.57256000     -0.309263   -0.00547200    0.09023600
Se    7.09589000    6.13190000    1.83287000      0.676927   -0.27890100    0.33932300
Se    8.34931000    7.12231000   12.13818000     -0.036759    0.91343400    0.05348800
Se    7.42477000   10.63272000    1.05892000      1.924962   -0.03651200    0.43960100
Se    6.51794000   13.37222000   12.88621000     -0.023867   -0.07183700    0.07764700
Se    4.78790000   20.32282000    2.44901000     -0.426636   -0.53177800    0.29199300
Se    9.16445000   18.51161000   10.86424000     -0.278743   -0.08484300    1.11683300
Se   14.01066000    0.58941000   18.59390000     -0.638837    1.21345800    0.83322400
Se   11.37102000    1.39738000   13.98083000      0.662701    0.29589500   -0.75669600
Se   12.39927000    8.17940000   18.22752000      0.680293   -0.85508900    0.21926400
Se    9.41639000    8.77233000    9.53093000      1.366630    0.47674400    0.66876900
Se   13.29734000   13.73972000    2.23867000     -0.940902   -0.13399500   -0.54676100
Se   11.73210000   10.50799000    8.59172000      0.919713   -0.59410400   -0.48729600
Se   14.24830000   16.69621000    2.18161000     -0.194248    0.12352000   -0.29659500
Se   12.98755000   18.35409000   11.02307000     -0.594061   -1.12231200    0.08456700
Se   19.31849000    2.70298000    2.31436000      1.400716   -0.14824000    0.23167400
Se   16.00318000    2.41260000   12.44051000     -1.419683   -0.57371400   -0.07940200
Se   16.27741000    7.81950000   17.26620000     -0.779825    0.42698500   -0.20791500
Se   18.33057000    5.69976000   12.44555000     -0.527248    1.75375500   -0.28112600
Se   18.74976000    9.33041000    0.48570000     -0.052303    0.47768200    0.00228400
Se   17.37748000   13.75511000    6.28667000     -0.049814   -0.43236800    0.23571600
Se   20.22053000   18.71388000   18.44176000      0.747569   -0.21985000    0.64709200
Se   16.60083000   18.13413000    9.48723000      0.176804   -0.19846900   -0.49247600
Se    1.89753000    3.19411000    1.12003000      0.051314    0.05356100    0.16437000
Se    5.96169000    6.57181000   11.12682000     -0.229401    0.00420000   -0.46038300
Se    5.39600000   10.81541000    2.09228000     -1.177446    0.21180600    0.15892400
Se    5.33919000   12.43954000    9.96421000      0.034480    0.02528000   -0.40186000
Se    2.44391000   15.19529000    2.31438000     -0.705902   -0.23287900    0.47063000
Se    2.44346000   13.46197000   13.32725000     -1.286725    0.23494500   -2.52900700
Se    2.66744000   21.86470000    0.64368000      0.402319    0.27292300   -0.36094500
Se    6.38158000   20.67003000    9.74847000     -0.485252    0.20001800    0.28591800
Se   12.51618000    5.06152000    1.63315000      0.368434    1.06754900   -0.78514100
Se    5.78078000    4.40306000    8.38094000     -1.569463   -0.49341100   -0.96752200
Se   12.04675000   10.54737000    1.17809000     -0.743949    0.38582800    0.60409100
Se    7.57230000   11.67121000   11.13652000      0.304759    0.26902700   -0.37056300
Se    9.76008000   15.63102000    1.96882000      1.146489   -0.56165900   -0.09734800
Se   12.66284000   13.20267000   11.65160000      0.344502   -0.51908300   -0.21549600
Se    9.29277000   21.42442000   17.90607000     -0.023184   -0.71519500    0.13429200
Se    8.93999000   22.01898000   12.18191000     -1.892182   -0.13945100    2.14292100
Se   15.69401000    4.68691000    0.18160000     -0.154625   -0.56165700   -0.43535300
Se   16.52009000    6.95859000    8.75370000     -0.346351    0.78699800    0.51666100
Se   15.64273000   10.51276000   18.13995000     -0.263545    0.17316200   -0.18531600
Se   14.55730000   10.32769000   12.81499000     -0.439737    0.76230700    0.22613900
Se   17.25690000   14.01190000    2.88048000      0.586393   -0.10580600    0.05091700
Se   15.11650000   12.97694000   10.92957000     -0.622418    0.50834800   -0.23043300
Se   17.99697000   21.77793000    1.21857000     -0.604427    0.31062900   -0.39372500
Se   14.63971000   21.01147000    8.68921000      0.603858   -0.57148200   -0.04438500
Se   21.38035000    5.26842000    0.47183000      0.215166   -0.68655300   -0.77923100
Se   21.58926000    4.20806000   11.87147000     -1.448285   -0.08626200   -0.44314700
Se   20.02697000    6.72276000    1.81973000      0.542936    0.27734800    0.80455000
Se   20.30953000   11.25825000   10.10656000      0.103321   -0.87249900    0.58387800
Se   19.51657000   15.31507000    0.44623000     -0.375029   -0.63837100   -0.27002200
Se   20.58581000   15.67514000   12.73578000     -0.272231    1.11910200   -0.17982700
Se   20.60321000   21.85161000    3.75126000      0.263830    0.88858500   -0.87621200
Se   17.27987000   20.93528000   11.60529000      0.759303   -0.04553200    0.26754700
Se    2.74924000    3.69608000    8.35111000      0.277558    0.61777600    0.54622200
Se    0.55392000    3.61284000   16.79505000      0.331208   -0.52856100    0.37230800
Se    3.55479000    8.87362000    8.72240000     -0.279764    0.82146400   -0.11098200
Se    1.06402000    9.53388000   17.27037000      0.956211   -0.22529600   -0.53704400
Se    3.96391000   18.05380000    8.37598000      0.386810   -0.08396700   -0.25243100
Se    0.27677000   17.72949000   15.11967000      0.540519   -0.69786400    0.44822200
Se    2.12950000   20.63045000   12.47689000      1.023157   -0.46382800    1.69553700
Se    1.45475000   20.71503000   17.52123000      0.190261    0.48962400    0.17811400
Se    5.51151000    3.98989000    5.15231000      0.597620   -0.00651800   -0.09667600
Se    5.64120000    4.69908000    0.35647000     -0.444311    0.38255100    0.56108300
Se    6.34645000   10.24230000    6.35872000     -0.895230   -0.21112000   -0.02931600
Se    4.22212000    7.65405000   16.68797000      0.793799   -0.42693200   -0.66117900
Se    6.27477000   16.36048000   10.39381000     -0.038919   -1.16029800    1.08852700
Se    6.67210000   15.69107000   17.95442000     -0.148918    0.43781300    0.05058800
Se   10.37534000   17.93446000    6.47798000      0.009435    0.19579500    0.13079100
Se    6.17647000   20.79627000    0.36207000      0.328679   -1.09332700   -0.66638700
Se   10.52459000    2.44876000    9.75780000      0.292637   -0.65499200    0.51898300
Se   12.85317000    4.03153000   16.86400000      1.055600   -0.81566300    0.26393100
Se   13.59023000    8.10877000    6.70068000      0.253264   -0.35499000    0.85858700
Se   12.68282000   10.10370000   16.12449000      0.517455    0.17288500    0.89347600
Se   12.22395000   15.33719000    8.18361000     -0.115025   -0.49681400   -0.53474000
Se   14.64825000   14.50743000   17.23852000     -0.561361    0.74770700   -0.67007700
Se   12.42544000    0.22023000    6.95388000      1.121512   -2.36177000    3.56517800
Se   15.37052000   20.14699000   17.16408000     -0.334226   -0.50350000    0.14607400
Se   13.81072000    4.34643000    9.24834000      0.298522   -0.33210200    0.80005700
Se   20.25184000    1.99072000   15.36549000     -0.241108    0.16679500    0.63421000
Se   18.80006000    8.96704000   10.04738000      0.368032    0.60100300    0.87446500
Se   17.41508000   10.92443000   15.45131000      0.103537   -0.37860500    0.21783400
Se   15.56720000   16.36216000    6.76831000      0.274569    0.31380900    1.02778700
Se   19.47185000   13.67509000   16.04093000      0.115859   -0.68873800   -0.24051000
Se   18.57133000   20.29128000    7.97509000      0.233158    0.22344300    0.21132200
Se   18.62541000   18.43094000    2.74271000      0.560084    1.07834700   -1.83639200
Se    4.57066000    0.51575000    7.41956000      0.641949    0.88999400    0.10622000
Se    4.22808000    3.53302000   17.45149000     -0.041397    0.11733900   -0.43699900
Se    7.74325000    7.61836000    8.65915000     -1.731798   -0.20824300   -0.99873200
Se    4.84658000    8.52359000   18.81077000     -0.221736    1.19356000   -0.09093400
Se    6.24403000   16.06847000    5.84307000     -0.245451   -0.09218500    0.43093200
Se    5.28527000   11.91792000   17.27923000     -0.308458    0.22177300   -0.11052100
Se    1.84172000   20.99950000   10.31054000      0.172477   -0.64941900   -2.41704000
Se    0.32906000   19.44655000    1.73129000     -0.353014   -0.02219700   -0.03160500
Se    8.93892000   21.86884000    8.54744000     -0.843328    0.32764100   -0.20671800
Se   10.01528000    3.16253000    1.27477000      0.131500   -0.26879100    0.53685600
Se   10.30414000    5.31766000    8.61174000      0.432993    0.88447900    0.44425700
Se    8.84033000    5.72412000   17.73380000      1.109665    0.56648700    0.29905400
Se    9.11126000   12.06004000    6.19413000      0.152554    1.18913000    0.06270800
Se    8.08438000   13.71333000   17.52420000      0.144465    0.03342600    0.77396900
Se   11.84075000   20.95050000   10.22529000     -0.043894    0.29643900    0.26356500
Se   11.79232000   14.32358000   17.73302000     -1.025614   -0.65465700   -0.60563700
Se   15.69843000    1.90520000    7.34025000     -0.139716   -2.90889500   -2.29671100
Se   16.63940000    2.78644000   17.98956000     -0.099090    0.48937800    1.01995400
Se   15.72178000    5.17638000    6.73450000     -0.084413    0.26997500    0.63201700
Se   15.51372000    7.70405000   14.76385000      0.185157   -0.51757600    1.28273000
Se   15.43977000   10.83407000    8.65366000      0.458149    0.12904400    0.30967200
Se   14.68760000   13.00873000    0.12733000     -0.021475   -1.07424100    0.40488600
Se   14.06266000   18.73605000    5.54460000     -1.054456   -0.17020900    0.51057700
Se   17.10477000   17.57027000   18.75862000     -0.127349   -0.48139200    1.05078100
Se   20.62344000    0.58930000    7.94850000      0.552668    0.44746900    0.08658800
Se    0.61387000    0.36088000   13.06067000     -0.290650    1.12428700    0.37898500
Se   20.93659000    7.41932000    8.99227000     -0.535912   -0.19099300   -0.68805000
Se   20.17089000    7.78935000   16.39089000      0.978040    0.02007300    0.04574100
Se   22.11073000   10.30659000    7.13880000      0.433681   -0.43394400   -0.03580700
Se   21.09625000   11.62736000   17.76951000      0.275566   -0.50436000   -0.90756900
Se   19.41818000   16.58199000    7.78355000     -0.357710    0.09918200    0.32213800
Se   19.53104000   17.41291000   15.79447000      0.261378   -0.64707900   -0.18976500
Se    3.74890000    1.82160000   11.33772000     -0.156442   -0.34048300    0.22605400
Se    2.86457000    0.44767000   14.84850000     -1.181070    1.26269600   -0.37822100
Se   22.25213000    6.29484000    7.13149000      1.295166    0.10410700    0.38563500
Se    1.36543000    9.71338000   14.35260000     -0.633844   -0.17419500   -0.45586000
Se    2.91156000   14.69147000    7.26288000     -0.569401    1.00516600   -0.08487300
Se    1.72590000   13.84209000   16.85397000     -0.414700    0.42519500   -0.48477800
Se    0.31146000   17.41946000    9.38523000     -0.608292   -0.66949700   -0.38058800
Se    1.89527000   19.90758000   15.30560000      0.296514   -0.14451000   -0.00518900
Se    6.69517000    0.01731000    3.49792000     -0.149998    1.07918900    0.08357400
Se    8.50757000   21.81617000    1.39893000     -0.780698    1.16956400    0.24985800
Se   10.22859000    8.86160000    6.59541000      0.198575    0.04073100   -0.00859000
Se    4.61451000    6.04973000   14.36535000     -0.142632   -0.48369900    0.03158800
Se    5.69490000   12.56658000    4.62940000      0.281873    0.11429600   -0.14524200
Se    9.97216000   14.06344000   13.92978000     -0.041354    0.03956400    0.55688700
Se    7.42424000   17.52781000    3.48592000     -0.205699    0.36559700    0.85514500
Se    7.15687000   16.39123000   14.81290000      0.763038    0.72391600    0.24302000
Se   13.19716000    0.08302000    3.91880000      1.542573    0.45611400   -1.51582000
Se   13.58144000   22.37165000   16.30423000      0.401105   -0.32908500   -0.05497200
Se   11.36454000    9.82408000    4.60015000      0.572566   -0.41007000    0.13767100
Se   11.10838000    6.88842000   15.19373000     -0.066441   -0.51395500   -0.39447600
Se   12.76758000   12.66761000    5.26761000     -0.280534    0.22385700    0.28165500
Se   13.71869000   13.35316000   13.97734000     -0.132929    0.31618800    0.32076400
Se   12.31346000   19.24491000    7.30398000      0.790429   -0.40300200   -0.07091100
Se   11.90017000   18.54523000    0.31818000      1.013459   -0.66256200   -0.39003200
Se   21.14236000    1.73217000    5.43151000     -0.139329   -0.38175700   -0.16474300
Se   17.94106000    0.34137000   16.62160000     -0.862033    0.62066800   -0.52539300
Se   19.26633000    5.06104000    6.20089000      0.170479   -0.10268300    0.75102900
Se   18.43967000    5.44829000   15.70543000     -0.099797   -0.38116500   -0.13256600
Se   19.54524000   11.45533000    5.08919000      0.436388   -0.15082000   -0.85192300
Se   17.43738000   13.10032000   11.92331000      0.481926   -0.02999600    0.30325100
Se   18.05634000   17.33969000    4.57884000     -0.495772   -1.15827800    2.15608700
Se   17.86707000   19.79912000   14.62967000     -0.505915    0.61676500    0.42522400
Se    3.19228000    6.38500000    5.82714000      0.104438    0.59920400   -0.32396800
Se    1.17472000    7.46360000   13.38110000      0.364094    0.40736100    0.43884600
Se    2.58532000   11.12906000    5.40698000      0.200193   -0.77676900    0.14910500
Se    4.39150000   10.76693000   14.23357000      0.621621   -0.46454800    0.20021100
Se    6.07224000   13.72683000    7.07358000      0.524013    0.14707300   -0.22296800
Se    3.56033000   17.74029000   17.68115000     -0.428923    0.96529200   -0.13431900
Se    0.96023000   19.72717000    7.16016000      0.100115   -0.45892500   -0.13762700
Se    4.79996000    0.03857000   16.02643000      1.549476   -0.95780100    0.08963100
Se    9.44461000    1.19843000    5.44096000     -0.230631    0.02518500   -0.39873900
Se    8.09713000    2.90365000   17.93976000      0.044407   -0.07218300   -0.03196100
Se   11.43967000   12.65532000    9.21761000     -0.235994    0.66599300    0.12802400
Se    9.55545000   11.25842000   17.12435000     -0.246050    0.14485000    0.31688700
Se    8.61045000   14.34329000    8.78769000      0.407999    0.48439400   -1.62421500
Se   11.21827000   17.76530000   14.71119000     -0.240007   -0.71894400   -0.44468900
Se   11.67929000   19.96157000    3.85346000      0.203232    0.17749300    0.23379600
Se    8.96883000   17.93339000   17.59917000     -0.629861   -0.60686700    0.15517200
Se   12.21769000    3.43445000    6.58928000      1.206942    0.86486500   -0.22675200
Se   17.52883000    3.21239000   15.77350000     -0.300509    0.53104000   -0.51254300
Se   16.00756000    8.43576000    5.92276000     -0.431683    2.03315700    0.90363100
Se   16.61764000    9.31829000   12.38101000      0.469462   -0.36426700   -0.72892800
Se   16.39522000   11.57589000    5.68408000      0.202863    0.39859200    0.33031400
Se   15.14851000   16.88374000   15.13040000      0.477827   -0.03184800    1.26969700
Se   17.30713000    2.94143000    3.23473000     -2.195803   -0.31860000    1.42777700
Se   18.08803000    3.31852000   12.15922000      1.222934   -0.22097300    0.23467900
Se    1.70541000    2.67501000    6.59620000     -0.824144   -0.35167100   -0.34113900
Se    1.06996000    4.49198000   14.66301000     -1.875681    0.67061600    0.79333900
Se   19.19239000   12.57648000    8.17348000     -0.044589    0.30417600    0.40891200
Se   20.94570000   11.97730000   14.16978000      0.219935   -0.39537300   -0.70035900
Se   21.36792000   13.46901000    7.24837000     -0.286157    0.04650300   -0.19422000
Se   20.10719000   18.33285000   12.75005000      0.846666   -0.27000900    0.60239800
Se   20.27507000   18.96702000    9.05004000     -0.334235    0.38908100    0.39109300
Se   20.93478000   20.82822000   15.95088000     -1.174690   -1.69436500   -0.90872100
Se    3.22531000    1.32711000    4.10456000     -0.132757    0.91592200    0.80505900
Se    6.69136000    3.08150000   16.12025000     -0.792486   -0.12482800    0.00164500
Se    1.60701000    6.14860000    0.32347000      0.343019    0.56048000    0.56538300
Se    5.68646000    8.97306000   12.78412000     -0.471156    0.62278600    0.06929100
Se    2.16635000   12.75562000    2.32475000     -0.034494    0.36433800   -0.13977900
Se    4.78061000   15.12419000   15.12251000      0.024481   -0.00948500    0.76949500
Se    3.90480000   18.08412000    2.41854000     -0.215724    0.45978600    0.66325000
Se    4.51102000   18.22418000   12.39619000      0.468742    0.48096000    0.53283900
Se   10.44047000    0.70517000    1.82624000     -0.020327    0.84779100    0.85422200
Se   10.14485000    0.36644000   16.22385000      0.633572    0.30155200   -0.11434700
Se    9.68405000    7.46380000    2.72901000      0.337095    0.00944300    0.19607700
Se    7.67323000    8.87266000   15.78591000     -0.415522   -0.34940900   -0.27603900
Se   10.65289000   11.84969000    3.17336000      0.339339   -0.21726200   -0.61871100
Se   10.33388000   11.37650000   11.63691000      0.075456   -0.00793200   -0.37395700
Se   10.42488000   19.34185000    2.00144000     -1.209979    0.11089700   -0.13194800
Se   14.86513000   18.59520000   13.67369000      0.115606    0.77223200   -0.35507600
Se   15.44829000    3.33197000    5.37780000     -0.412615   -0.55849300   -0.29626700
Se   13.85987000    1.70496000   14.97534000     -0.179792    0.26104700    0.10715300
Se   15.11802000    6.26506000    3.36214000      1.137789   -2.14619600   -0.28582900
Se   13.01699000    7.31300000   11.64589000     -0.875152    0.20564200   -0.53635000
Se   16.04264000   10.98959000    2.60882000      0.275995   -0.75726600   -0.25040900
Se   17.11029000   14.47660000   16.63743000     -0.254641   -0.16508900   -0.22523800
Se   14.94701000   15.62572000    4.44517000      0.848300    0.31661900   -0.21906400
Se   14.24207000    0.01204000   12.45617000      0.336746   -0.39922700   -0.10980700
Se    2.28270000   21.08821000    5.69498000     -1.016520    0.61402000   -0.32748200
Se   19.50061000    1.25761000   12.79718000      0.568276   -1.00076700   -0.14116700
Se   22.41687000    7.21342000    3.82164000     -0.181636   -0.15060200    0.63901200
Se   19.95980000    8.73829000   14.05148000     -0.906742   -0.79556700   -0.11047100
Se    1.35668000   13.76757000    5.81060000     -0.444013   -1.96997400    0.31119700
Se    0.07922000   15.04594000   15.25614000      0.218020   -0.08069500    0.23724400
Se   21.61143000   16.61977000    5.55870000     -0.454420    1.24116100    0.46652400
Se   21.14799000   20.83028000   10.97097000     -0.245870    0.46146800   -0.34598400
Se    1.70892000    4.68684000    3.49525000      0.892441   -0.11070400   -0.01335400
Se    3.05600000    5.17567000   11.93472000     -0.687022    0.48357500   -0.58799400
Se   21.84029000   10.71518000    4.13516000     -1.010078    0.40754600   -0.12334100
Se    1.46196000   10.88405000   11.92551000     -0.495061   -0.85079200    0.27667800
Se    0.05759000   15.87104000   18.70470000     -0.065381    0.07115100    0.29634900
Se    3.62581000   15.40138000   12.59735000      0.492816    0.30662700   -0.34223900
Se    1.82095000    0.79872000    2.32562000     -0.556078   -0.24125700   -0.87625500
Se    4.64508000   20.42851000   14.49195000      1.011629   -0.05515900    0.33103800
Se    9.72625000    5.43132000    4.73923000      0.254185   -1.14878700   -0.36509500
Se    8.18855000    2.50511000   14.21683000      0.505493    0.03412700   -0.57929700
Se    6.80239000    7.30953000    5.44228000     -0.169057   -1.23542300    0.57238400
Se    7.90788000   12.71353000   14.69268000     -0.033154    0.01086300   -0.77448700
Se    6.05208000   15.22134000    1.55560000     -0.348095   -0.66217300   -0.61566900
Se   11.20641000   15.51074000   11.19665000     -0.775317    0.07933000   -0.06983400
Se    7.69576000   20.15887000    6.22724000     -0.687503    0.19861600   -1.35230900
Se    7.61294000   20.53422000   15.14442000     -0.268765   -0.42078100   -0.17624700
Se   14.83313000    1.62512000    2.68843000     -0.493568   -0.49182100   -0.01606300
Se   10.91141000    4.54687000   12.00164000      0.684873    0.74196800    0.49947000
Se   13.86835000    8.10296000    3.41114000     -0.244994    2.11382400    0.10202800
Se   10.70357000   10.48828000   13.84432000      1.115975    0.02307100    0.32758500
Se    9.33079000   14.22057000    4.97576000     -0.161500   -0.62934800   -0.18273900
Se   15.06415000   15.53983000   10.94973000     -0.112343   -0.27544600   -0.05826900
Se   14.99494000   20.04326000    2.17378000     -1.075374   -0.21596300   -0.53399100
Se   13.27025000   20.91843000   13.82643000     -0.255350   -0.65689900   -0.17484400
Se   17.74964000    5.71012000    1.29800000     -0.354456   -0.50478300   -0.65298100
Se   14.53492000    4.81253000   13.28683000     -0.867694   -0.39343700   -0.50134000
Se   18.42447000    8.33815000    3.44371000      0.297446    0.16983600    0.02571100
Se   21.23672000   13.37289000   12.19335000     -0.213636   -1.10998300    0.44129800
Se   21.21459000   14.28433000    3.42343000      1.065217   -0.57183800   -1.67733800
Se   17.04933000   16.68402000   12.43617000      0.486193   -0.02013600   -0.65186900
Se   16.89751000   20.97715000    5.34703000      0.773433   -0.41717500   -0.84418000
Se   16.29120000    1.10514000   10.08847000      0.194783    0.33423500   -0.07013600
