384
22.54784000 22.54784000 18.93360000
Ge    6.24402000    4.94211000    9.54479000      0.529441   -0.75393600    0.83710000
Ge    4.49931000    7.65306000    1.71516000      0.214270    0.31348800    0.65284500
Ge    3.52256000   11.90534000    6.58903000     -0.104903    1.09344000    1.08610400
Ge    6.02556000   10.25254000   17.76111000      1.186136   -0.82313800   -0.89077900
Ge    4.34300000   13.12111000    9.95375000     -0.356649    0.40823000   -0.15771100
Ge    8.95139000   17.91179000    0.13218000     -0.222549   -0.25927200   -0.14001400
Ge    6.36161000   18.40886000    7.81062000      0.102030   -0.09061900    0.49341300
Ge    4.90127000    1.91602000   16.19262000      0.154783   -0.11191600    0.09571500
Ge    9.20093000    7.28877000    9.65507000      0.004611    0.85500600   -0.19533000
Ge   10.78783000    5.58171000    0.51617000      0.913406   -0.28702100   -0.08509000
Ge   12.01567000    8.24158000    9.18251000      0.462833    0.40127800   -0.29531100
Ge    9.75352000   11.94206000    0.52343000     -0.136369   -0.56271000   -0.35387400
Ge   10.65333000   16.51276000    8.95661000     -1.373015   -0.43262500    0.58123700
Ge   11.59332000   15.57186000    0.56962000      0.236668    0.82479700    0.33658400
Ge    9.65456000   22.26438000   10.25256000     -0.286259    0.35568700    0.59960200
Ge   13.78846000    0.94818000    1.14515000     -0.054423   -0.52023100    0.35016300
Ge   19.16994000    5.38861000    9.76415000      0.374470    0.53460200    1.15331800
Ge   17.51356000    8.43229000   17.26977000      0.507957   -1.12816300   -0.35618400
Ge   17.53212000   14.69071000   11.05612000     -0.047307   -0.32063700    0.07225900
Ge   17.85282000   10.97341000   17.29268000      0.212919    1.99322000    0.30965700
Ge   13.36950000   15.21925000    8.17766000      0.065220   -0.28818200    0.30145600
Ge   17.13520000   15.61924000    0.51743000      0.647458   -0.26390900    0.13468900
Ge   15.81111000    3.69958000   10.45823000      0.138144   -0.90014300   -0.30086400
Ge   18.39862000    2.38426000   18.80825000      0.286896    0.46003500    0.67138900
Ge    1.86785000    5.20521000    9.84118000     -0.361986   -0.77459900   -0.05832400
Ge   20.61405000    3.59860000    4.80599000     -0.502607   -0.06475100   -0.92076000
Ge   22.43761000   10.66757000    9.88858000      0.143526    0.18588500   -0.45861400
Ge   21.14442000    9.64933000   18.71131000     -0.124975   -0.90707100    0.61451700
Ge   20.47698000   14.75327000    7.86273000     -0.745575    0.40907100   -0.18636700
Ge    4.42418000   16.10840000   17.15105000      0.889160   -2.24921600    0.30653400
Ge   18.86906000    0.29450000    9.81778000      0.082070   -0.23958100   -0.07270400
Ge   22.31560000   19.45970000    3.46545000      0.471190   -0.19144800    0.11472600
Ge    3.92202000    7.97988000    6.64997000     -0.403404   -0.44988600    0.13405800
Ge    2.23280000    8.32617000   18.46264000     -0.071357   -1.12075800   -1.00998600
Ge   20.95610000   10.40703000    3.96852000      0.083749   -0.09465600    0.42363400
Ge    4.55124000   13.02515000   14.55158000     -1.276432    1.33570000    0.34395000
Ge    4.13802000   17.34306000    4.86995000      0.118183   -0.33140500    0.18529800
Ge    0.37709000   18.67124000    0.29677000      0.668266    2.10954200    0.38236600
Ge    3.09508000   18.12393000    9.92344000     -0.308157    0.15773400    0.19494200
Ge    2.07805000    1.37615000   17.41904000     -1.617583   -0.03051800    0.13890100
Ge    9.72928000    2.66767000    8.13743000      0.132717    0.78211400   -0.36763800
Ge    7.13523000    5.92623000   16.26364000     -0.269768    0.51650900    0.20346300
Ge    8.93069000    9.14446000    4.05376000     -0.852106   -0.52929200    0.61477600
Ge   10.38558000    7.46215000   16.56588000      0.137089    0.25126300    0.10300800
Ge    7.38166000   15.75469000    9.73469000      0.195178    0.48385500    0.18438400
Ge    9.95722000   14.55416000   16.79412000     -0.986279    0.72998800   -1.14215800
Ge   10.36158000   21.66875000    6.87753000      0.277405    0.19699600   -0.28473400
Ge   10.72178000    1.21360000   13.43846000      0.066974   -0.53515700   -0.04424400
Ge   12.18313000    7.16127000    5.28029000     -0.699827    1.53242100   -0.14289900
Ge   15.17340000    3.00252000   16.74049000      0.111436   -0.07498200   -0.12584900
Ge   15.19610000    8.94783000    6.28468000      1.141387    0.91275600   -0.55572100
Ge   14.83692000   12.88704000   15.71060000     -0.409429   -0.46688600    0.72363600
Ge   11.98702000   14.33573000    5.02780000      0.161970   -0.24303100    0.71956500
Ge   15.32858000   18.85877000    0.04732000     -1.121296    0.81555600   -0.35954300
Ge   14.26807000   21.16582000    8.48979000      0.557986    0.75611300   -0.63610100
Ge   17.89052000   21.82797000   13.51303000     -0.264873   -0.05459900   -0.01144200
Ge   21.93012000    4.23644000    8.25442000      0.117931   -0.52740700    0.27321500
Ge   19.87373000    5.80308000   13.55779000     -0.548409   -0.14314100    0.11880200
Ge   18.90333000   11.12844000    7.61197000      0.140448   -0.35705200   -0.09357500
Ge   21.42030000   15.29088000   16.40614000     -0.386502   -0.58176800    0.12989800
Ge   17.85402000   16.51618000    5.71676000     -0.044628    0.74491500    0.64957200
Ge   16.66074000   18.01203000   15.75902000      0.133485    0.27944200    0.38424500
Ge   21.93154000    0.60598000    6.25278000      1.131866   -0.02740000    0.06866800
Ge   18.96843000   21.57454000   17.63227000     -0.083033   -0.67843800   -0.58794300
Ge    6.12262000    1.63862000    6.86150000      1.140811   -0.16959100   -0.29103000
Ge    4.23748000    2.70722000   13.33866000     -0.405261   -0.77977000   -0.76352300
Ge    0.49092000    9.55219000    6.11326000     -0.460383   -0.16404700   -0.33740400
Ge    2.84017000    7.09027000   11.33579000      0.395168    0.86726900    1.53814100
Ge    0.77879000   15.55296000    3.76904000     -0.555119   -0.10333100    0.07287900
Ge    2.27044000   17.53510000   15.24243000      0.201644    0.44554800   -1.29105800
Ge    4.11265000   21.89026000    9.73181000      0.623459   -1.42960500    1.19971200
Ge    8.81347000   19.37865000   15.62544000      0.241748    0.53816400    0.98095000
Ge    6.02315000    3.68935000    2.62990000      0.638270    0.41377600   -0.22208900
Ge    9.43083000    3.00938000   17.02403000      0.512424    0.14671900   -0.19366700
Ge    7.66845000    6.21984000    4.70587000      0.399363    0.63827700   -0.21899700
Ge    8.45293000    9.85804000   13.37578000     -0.277871   -0.35970400    0.37817300
Ge    5.17465000   14.52853000    4.20884000      0.174299   -0.16736200    0.01430700
Ge   11.62483000   12.05571000   14.74416000     -0.332936   -0.03608300    0.21062400
Ge    7.78370000   20.49628000    4.18373000     -0.246767    0.73279300    0.22082800
Ge    9.61135000   16.37190000   12.95744000     -0.045350   -0.10667700    0.08675000
Ge   12.36608000    2.58374000    4.51456000      0.171337   -1.61501700    0.21860400
Ge   12.59541000    4.36291000   14.72790000      0.663670    0.75838800    0.41018500
Ge   18.09046000    3.85850000    5.88645000     -1.673603   -0.80773000   -0.60262900
Ge   14.36142000    9.17434000   14.32554000      0.125166   -0.02997000    0.25820300
Ge   15.12302000   13.59882000    2.97949000      0.115013    0.26535000    1.60030300
Ge   13.22018000   15.47190000   11.69993000     -0.270401    0.24491300   -0.22076500
Ge    9.99464000   18.41589000    4.47211000      1.416276   -0.08157800    0.18191700
Ge   11.68026000   20.51119000   16.82217000      1.038160   -0.54444800   -0.04932200
Ge    0.47662000    6.09658000    6.31773000     -0.088328    0.51188300   -0.78319600
Ge   22.22174000    3.96910000   13.55682000      0.136664    0.43275400   -0.43526000
Ge   19.71501000    7.65121000    7.75541000     -0.344710    1.47310100   -0.75634600
Ge   16.88223000   10.93399000   12.18006000      0.163774   -1.28639000    0.61421700
Ge   20.38572000   16.89843000    0.41442000     -0.278575   -0.62286600    0.14973500
Ge   19.59707000   15.29025000   13.91096000     -0.618900    1.79274400   -0.62086400
Ge   18.89714000   20.95580000    5.17987000     -0.120038   -0.04892300   -0.97850700
Ge   21.25407000   20.81312000   13.38806000      0.766173   -0.31186800   -0.49473900
Ge    2.88708000    1.97490000    3.14882000     -0.038907    0.50051500    0.10853000
Ge    5.62113000    0.66559000   11.55940000      0.010432    0.22210100    0.45560500
Ge    4.29726000    9.57815000    3.79517000      0.124842   -0.29190400   -0.09710200
Ge    7.03963000    4.30284000   13.93326000     -0.650207    0.13704500    0.47774700
Ge    4.77847000   12.39617000    0.88926000     -0.212883    0.93215800    1.25926200
Ge    3.65651000   10.53155000   12.41419000      0.652066   -0.99501900    0.27969600
Ge    3.87344000    0.60042000    7.80019000     -1.564921    0.13339200   -0.86200200
Ge    7.47574000   19.99074000   12.39043000     -0.818609   -1.25474500   -0.12973500
Ge    9.57693000    3.69769000    2.72632000     -0.197079   -0.18303500    0.09748900
Ge    9.55432000    4.77965000   11.54260000      0.372227    0.09964600    0.12719500
Ge   11.66710000    8.38313000    1.73136000      0.535715    0.55495600   -0.10650900
Ge   11.09626000    8.38036000   12.22490000     -0.127334   -0.12985300   -0.51345500
Ge    8.42719000   13.66123000    2.31678000      0.478700    0.03294000   -0.43870300
Ge    7.95564000   12.55270000   11.01084000      0.492197   -1.21163000   -1.36040800
Ge   11.05125000   21.45358000    2.14007000      0.650493   -0.42100100   -0.18384200
Ge   11.46178000   19.38019000   12.39071000      1.425199   -0.20015600    0.79256200
Ge    0.02612000   22.13154000   16.44689000      0.933213    0.19216400   -0.17376900
Ge   12.69516000    1.16199000    9.78612000      1.061773   -0.00786500    0.39390000
Ge   16.14055000    6.62452000    1.70876000     -0.422940   -0.14958400    0.12051600
Ge   15.08806000    6.38300000   11.35035000      0.252494    0.15069000    0.70406200
Ge   18.00250000   12.00991000    1.44604000     -0.345590    0.81275400    0.80180400
Ge   16.00650000   16.38369000    8.50311000      0.011519    0.13964800   -0.79940100
Ge   16.78572000   21.01759000    2.33330000      2.752924    0.50714200    0.00365500
Ge   15.37641000   19.89932000   10.91158000     -0.235213   -0.16670400    0.08629100
Ge   20.85834000    1.35536000    2.35986000     -0.708043   -0.19785300    0.21175200
Ge    0.45175000    1.42012000   10.84485000     -0.281966   -0.79958400   -0.60836700
Ge   22.01079000    7.57631000    2.23779000     -0.608934   -0.60893700   -0.10372800
Ge   21.87908000    9.01627000   13.95268000      1.101047   -0.76654900    0.27779000
Ge   20.70181000   12.65329000    0.57693000     -0.384974    1.26309700   -0.78300800
Ge    0.31417000   15.50549000    9.05039000      0.202220   -0.18503800    0.75148300
Ge    4.60292000   20.72285000    4.67630000     -1.078200   -0.32539800    1.20446600
Ge   19.60851000   19.01384000   11.29415000      0.448684   -0.31423800   -2.06975600
Se   21.13069000   22.53796000    0.01017000      0.462288    0.60157600    0.25419000
Se    1.55495000    1.18711000    8.48102000     -0.338878   -0.09712800   -0.32899500
Se    2.08291000   10.69071000    2.71397000      1.502154   -0.38892300   -0.51368700
Se    0.41285000    6.58809000   12.89335000     -0.061566   -0.46085700    0.55708300
Se    0.16964000   13.37502000   18.05464000      0.052988   -0.20856600    0.45040900
Se    1.01949000   13.16911000    9.31739000      0.400405   -0.56192300    0.09968300
Se    1.48340000   17.60558000    5.00317000      0.380199   -0.09610500   -0.15356500
Se    2.31791000   15.94292000   10.58703000     -0.454855   -0.14248600   -0.56195600
Se    4.25814000    2.17613000    0.97626000      0.681021   -0.35794600    0.48971400
Se    6.98299000    3.37525000   11.53337000     -0.429370    0.24287600   -0.36066500
Se    6.50620000    6.21438000    1.95972000      0.959524   -0.91428600    0.38837100
Se    8.58673000    7.38030000   12.22557000      0.858904   -0.48389900   -0.03371100
Se    7.78381000    9.88730000    0.94346000      0.058547    0.26366900   -1.01568500
Se    6.11620000   11.31616000   14.03942000      0.201574   -1.00172300   -0.61551900
Se    5.57723000   20.71466000    2.44641000     -0.042850   -0.96623500   -0.71564000
Se    9.43427000   18.60121000   11.43691000     -1.055288   -0.56446100   -0.90632400
Se   11.45302000    1.97485000    0.62695000     -0.189910   -0.35844500   -0.33469500
Se   12.95784000    2.23724000   13.81888000      0.395720   -0.92619900    0.07084100
Se   12.21797000    7.58947000   18.41049000      0.121719   -0.05547900    0.46476100
Se    9.50641000   10.16038000    9.61679000      0.184648   -0.34819000   -0.09175300
Se   12.86617000   14.99570000    2.87093000      0.186866    0.18451600   -1.26451700
Se   12.65749000   10.63455000    7.97209000     -0.314719    0.04435800   -0.60261000
Se   14.14646000   17.82471000    2.40046000     -0.720274   -0.87866800   -0.51451000
Se   12.84186000   17.36729000    9.56031000      1.587360   -0.11304300    0.76500300
Se   18.47485000    4.17867000    2.40104000      0.312391    0.32533100   -0.54425900
Se   16.51100000    1.82072000   13.27512000      1.102981    0.42111400   -0.52864900
Se   15.75385000    8.42307000    0.02711000     -1.199287   -0.30058300   -0.29116800
Se   17.66805000    5.25500000   11.81734000      0.831146    0.08349100    1.18248600
Se   18.39895000    9.74539000    0.76722000      1.300314   -1.36400900    0.68436900
Se   16.46160000   14.62527000    6.31422000      0.289236   -0.76603800    0.75710900
Se   20.82902000   19.96818000    0.62943000     -0.488151   -0.38715700    0.60275600
Se   17.48017000   19.69382000    8.02160000     -1.801897   -1.29335200   -0.38258200
Se    0.84978000    0.73207000    2.31823000      0.658784    0.08424200   -0.03204000
Se    6.54105000    7.36247000    9.34539000      0.390963    0.71372800   -0.40292400
Se    6.84672000   10.40328000    3.02389000     -0.196663    0.31606900    0.02981100
Se    4.59045000   10.67728000    9.06369000      0.381924    0.41283600    1.01828000
Se    3.46741000   14.86715000    1.66365000      0.396213   -0.66014800   -0.22797800
Se    2.92672000   12.81926000   12.58003000     -0.006998    0.96532000   -0.30463100
Se    3.63348000   22.35833000   18.21382000     -0.262520   -1.30568600    0.06766300
Se    6.08206000   20.23639000    9.77212000     -0.574865    0.05458300    1.16327300
Se   11.88664000    5.41967000    3.59283000     -0.202066   -0.05984100   -0.51011300
Se    7.28213000    3.79745000    7.66253000      1.596335    0.97461800   -0.39827800
Se   11.71286000   10.91692000    1.74323000     -0.197260   -0.05948300    0.33793700
Se    6.70716000   10.24306000   10.73912000      0.434782    1.31946300   -0.28687500
Se    9.30819000   16.05523000    1.85951000      0.871119   -0.88242700    0.23940000
Se   13.05441000   12.95453000   12.54813000     -2.004573    0.36689600   -0.37367600
Se    9.71089000   21.33594000   18.13595000      0.547147    0.19892100   -0.31124300
Se    8.23354000   22.25387000   12.31959000      0.310104    1.00327700   -0.42074800
Se   15.13813000    5.17241000   18.84728000     -0.188897    0.19190300    0.49965800
Se   16.84963000    6.02940000    8.90090000     -0.922893    0.65893600   -0.84194700
Se   14.86635000   11.31700000    0.44457000     -0.410310   -2.10435100   -0.03905000
Se   15.07342000   12.42402000   13.34951000      1.579536   -0.41155100    0.50822300
Se   18.90222000   15.13980000    2.54258000     -1.769624    0.12906900   -0.40965300
Se   16.27288000   11.23125000    9.64355000      0.094179    0.16025900   -0.20689500
Se   17.21729000   22.32855000    0.37353000     -0.308539    0.25148400   -0.31997100
Se   15.32731000   19.94980000    6.55386000      0.246657   -0.00566600    0.46931400
Se    0.20219000    3.07218000    1.69276000     -0.002924    0.58866900   -0.33065000
Se   21.64667000    4.99193000   10.77786000     -0.277489   -0.03648400    0.37427800
Se   21.28676000    5.51204000    0.02999000      0.486055    0.80255900    0.45363300
Se   20.93466000   10.66449000   12.67819000      0.050953    1.28636300   -1.11625500
Se   19.41921000   14.73391000   18.07788000     -0.322939    0.10060800    0.10264900
Se   21.06988000   16.45650000   11.83974000     -0.454422   -0.48010600    0.39810200
Se   21.05970000   21.64329000    3.85448000     -0.263347    0.57288600    0.64857200
Se   17.69829000   20.83088000   11.02783000      0.717737    0.63736000    0.08094600
Se    4.16620000    5.30816000    8.41465000     -1.245558    0.54097300    0.33008900
Se   21.88026000    2.45210000   18.38434000     -0.387063    0.01381500   -0.16115900
Se    2.11056000   10.16805000    7.94014000     -0.212488   -0.80866000    0.82556800
Se    1.07909000   10.51055000   17.88755000     -0.371023    0.25340900    0.20033300
Se    3.77150000   18.22495000    7.38649000      0.094025   -0.49012400    0.22761100
Se   22.40937000   18.02911000   15.12622000      0.355799    0.35359800   -0.73024300
Se    0.45881000   18.67015000   12.33316000     -0.100170    0.50684200    1.29681000
Se    2.00129000   20.56914000   17.11580000     -0.318000    0.97765000    0.43276800
Se    3.51622000    4.64762000    5.94659000     -0.292074   -0.67831900   -0.46888100
Se    5.29577000    6.17569000   18.21503000     -0.248947    0.10092400   -0.01710900
Se    5.66631000    9.69797000    6.38027000     -0.191305   -0.87203500   -0.43494200
Se    3.60534000    7.04258000   16.71490000     -0.082580    0.08891900    0.23825900
Se    6.54883000   14.25826000   11.61970000     -1.176683    0.65765100    1.12040700
Se    6.56290000   16.97594000   18.48182000     -0.182316   -0.15996200   -0.29993600
Se    9.07671000   18.90553000    6.83275000      0.809633    0.14678500   -0.00619100
Se    7.04270000   19.32349000   18.06245000     -0.331164   -0.07750800   -0.19923000
Se   10.53099000    2.07950000   10.59176000     -0.569841   -0.03788700    0.51613800
Se   11.91316000    4.49484000   17.10947000     -0.035491   -0.75179100   -0.63818100
Se   13.74940000    7.22072000    7.01478000      0.163650   -1.78290100    1.69036500
Se   13.91290000   10.86111000   16.63376000     -0.242426    0.05383600   -0.47303600
Se   11.17972000   14.36174000    7.62469000      0.066423   -0.06322200   -0.31851200
Se   14.07141000   16.06287000   17.45071000      0.042106   -1.81838000    0.63446300
Se   12.60101000    0.69525000    7.35374000     -0.388728   -0.27250400   -0.13234900
Se   13.94991000   21.52530000   18.46839000     -0.554436    0.67509100   -0.98767700
Se   13.39334000    3.73188000   10.83216000     -0.075668   -0.01616200   -0.33919600
Se   21.29927000    2.77491000   15.67884000      0.412801   -0.00281200    0.13560300
Se   18.58121000   11.57159000   10.54395000      1.266971    0.00111000   -0.47629500
Se   17.45037000   10.18294000   15.11055000     -0.631145   -0.17315900   -0.36850600
Se   14.04769000   16.20879000    6.00431000     -0.554534    0.52373800   -0.41784500
Se   20.66275000   13.30296000   14.63810000     -0.539116   -0.65187500    0.22025400
Se   19.22127000   21.02723000    7.78665000      1.784455    1.17746400    0.16336300
Se   18.67783000   19.31668000    2.74053000     -0.716502   -0.05247600    0.00464500
Se    5.07760000    2.44039000    8.92541000     -0.844447   -1.24998800    0.90092300
Se    3.11834000    3.40868000   18.26257000     -0.070836    0.71321900   -0.15636800
Se    9.58419000    9.77690000    6.76669000      0.377181   -0.41430400    0.94742400
Se    4.13496000    9.67459000    0.26177000     -0.350299    0.28762100    0.69686000
Se    7.01429000   17.08601000    5.74545000     -0.710368   -1.10132400    0.20564200
Se    5.31637000   12.60101000   17.44542000     -0.482479    0.45492100   -0.48613400
Se    1.29161000   20.03621000   10.25857000     -0.268438   -0.57214700   -0.11238700
Se    2.39884000   17.83569000    1.86293000      0.315711   -1.02803200   -0.66114900
Se    8.11951000   21.96361000    8.48360000      0.466697    0.50839200   -0.13229800
Se    7.97843000    3.33698000    0.68644000     -0.492715   -0.15624500    0.35113700
Se   10.72209000    5.22353000    8.85446000     -0.514671   -1.22272700   -0.35992900
Se    8.89031000    6.32066000   18.18913000     -1.431975    0.57013800   -0.68724900
Se    8.39872000   11.82473000    5.76086000     -0.003711   -0.07396800   -0.29259100
Se    7.48132000   14.18565000   17.11152000      0.739143   -0.04985900    0.13545200
Se   11.74778000   21.08132000   10.33045000      0.085535   -0.04216400    0.21605300
Se   11.55231000   13.38381000   18.17241000     -0.260100   -0.72412600    0.87419300
Se   16.33338000    0.37499000    8.06401000     -0.935771    0.12279400    0.68673000
Se   15.56362000    2.74169000    0.35583000      0.353639    0.26963200   -0.15187700
Se   15.99308000    4.09882000    7.65581000      0.641676   -0.06379800    0.58202900
Se   14.06563000    6.90529000   15.59764000     -0.061001    1.89670200    0.84885800
Se   16.48061000    8.97870000    8.53324000      0.201790    0.02657600    0.08959500
Se   15.31216000   13.52954000    0.58269000     -0.282957    1.81326400   -1.25570600
Se   12.86518000   18.40525000    5.62833000     -0.176429    0.08238900    0.46088400
Se   17.43239000   17.88735000   18.35444000      0.834410   -0.20591400   -0.25625000
Se   21.02993000    2.04259000    9.19042000      0.299619    0.40876100   -0.14864500
Se    0.78644000   22.50048000   13.84203000     -0.028004   -0.07607500    1.02823100
Se   19.67271000    8.31477000   10.13808000     -0.006248   -0.90333400    0.11768300
Se    0.02899000    6.31135000   17.02123000     -0.818546    0.86286500    1.04338100
Se   21.41134000   11.59491000    7.41249000     -0.283258   -0.16227600    0.23036600
Se   20.39108000   11.41223000   17.22364000     -0.814056    0.22075200   -0.73340200
Se   19.05364000   17.09119000    7.99580000     -0.454477   -0.58195700   -0.20945100
Se   19.32395000   16.99890000   15.82597000     -0.042495   -0.55753300   -0.48690900
Se    3.09025000   21.75168000   11.85486000      0.045572    0.31326000   -0.19186000
Se    2.22293000    1.84344000   15.00930000      0.045195   -0.23641200   -0.91202500
Se   22.02567000    7.65693000    8.58324000      0.563578    0.09461400   -0.30878700
Se    1.02387000   10.38533000   15.52761000      0.744173   -0.49534700   -0.38742100
Se    3.41389000   15.45565000    6.83876000      1.004454   -1.16377800   -0.21963800
Se    2.78543000   13.41827000   16.29838000     -0.254057    0.54757400   -0.01491100
Se   22.43306000   17.25566000    7.30486000      0.471596    0.38895200    0.31059300
Se    3.50616000   19.60372000   14.06868000     -0.497246   -0.48567600    0.30866100
Se    6.64693000    0.19083000    2.71447000      0.583741    1.72980900   -0.35480300
Se    7.66332000   22.02270000    0.25846000     -1.113488    1.01459800    0.84208500
Se    9.87001000    7.36332000    6.77683000     -0.000035   -0.09918100   -0.17953300
Se    4.53563000    4.34459000   15.09164000      0.189531    0.24792200   -0.08986500
Se    5.34374000   11.97513000    5.02838000      0.040421    0.93410000   -1.17365500
Se    9.07758000   13.31055000   14.23638000      1.065792   -0.12792700    0.74003200
Se    7.62780000   18.02936000    3.70606000     -0.944504   -0.46009400   -0.64005300
Se    7.85536000   17.53630000   14.63530000      0.385460   -0.93632800   -0.75080500
Se   14.59287000    0.44535000    4.34146000     -1.007139    0.60396500   -0.14160000
Se   13.60174000    0.73003000   16.41850000      0.537990   -0.24231600    0.37594200
Se   12.90479000    9.82348000    4.99697000      0.255244    0.02965900   -0.37998700
Se   10.98039000    5.77429000   13.70938000     -0.520257    0.06867700    0.13598100
Se   13.91821000   12.94347000    5.57757000      0.007762   -0.33616700   -0.17241700
Se   12.97773000   14.50021000   15.67344000      0.401475    0.32226200   -0.37328400
Se   11.64891000   19.02649000    7.78137000     -0.309869    0.07706200   -0.97791200
Se   12.20004000   18.78378000    1.28943000      0.029647   -0.07187000    0.29889800
Se   19.71875000    1.62717000    6.24973000     -1.043270   -0.50513100    0.18136900
Se   18.87075000    1.36135000   16.44522000      0.836095   -0.06300200    0.29317900
Se   19.58983000    5.14156000    7.12945000      1.372873    0.17136500    0.58311300
Se   18.98392000    5.98128000   15.94766000      0.003075    0.26123600   -0.19127100
Se   18.79148000   11.77676000    3.92440000      0.328471    0.61035200    0.44530300
Se   17.22498000   14.81784000   13.44786000      0.623243   -0.01679100    0.38694100
Se   16.80124000   18.51507000    4.35364000      1.012918   -0.16502500    0.33626700
Se   16.72177000   20.47678000   16.35943000      0.431956   -0.57144100   -0.40818200
Se    2.12662000    7.81713000    4.68752000     -0.119730   -0.05926300    0.93385500
Se    2.57368000    6.61048000   14.03232000     -0.278421   -0.01517500   -1.24925800
Se    1.78850000   11.40997000    4.87153000     -1.155759    0.61802300    0.19360900
Se    3.83753000   10.03579000   15.16038000     -0.228329    0.76563500   -0.70639500
Se    5.96094000   14.75269000    7.95599000     -0.926837   -0.57934900   -0.54881000
Se    3.59257000   18.21049000   17.13556000     -0.653192    1.19505700    1.27061000
Se    2.72313000   20.25950000    6.91282000     -0.744393    1.14006000   -0.07412700
Se    5.34744000   21.90626000   14.92723000      0.532811    1.44583000   -0.46195200
Se    9.09624000    1.05910000    5.68477000      0.010335   -0.62668600    0.02004200
Se    7.11372000    1.70054000   17.80513000      0.097287   -0.44835200    0.45947200
Se   13.64312000   11.05703000   10.03941000     -0.629853    1.07820800   -0.41065600
Se    9.97549000   10.45917000   17.36196000     -0.226088   -0.23330200   -0.57133400
Se    8.62318000   13.75176000    8.83715000     -0.946047   -0.47576600    0.17298500
Se   12.13960000   16.88960000   13.48144000     -0.895827    0.68128100    0.38911400
Se   11.35329000   20.78057000    4.54749000      0.054291   -0.17666600    0.22249300
Se   10.73371000   17.48079000   17.50684000     -0.451465    0.09601600   -0.67188500
Se   11.30727000    4.71161000    5.94274000     -0.757283   -0.67583200    0.98905500
Se   17.81740000    4.46284000   17.49669000     -0.233764    0.22903600   -0.44550800
Se   17.47437000    7.61323000    5.25832000     -1.658299   -0.72569500   -0.04060400
Se   16.43247000    8.27038000   12.97646000      0.059550   -0.16698200   -0.43873800
Se   17.01145000   11.02977000    5.60247000      0.506046   -0.20538600   -0.47014000
Se   13.72845000   18.17749000   16.84350000      0.505598    1.42883700   -0.73709100
Se   15.96047000    2.35192000    4.85809000     -0.926175   -0.09587100    0.06698100
Se   18.92609000    2.78601000   12.72934000     -1.161946   -0.28943600    0.11070500
Se    0.19536000    3.41696000    5.84940000      1.130185   -0.54969200    0.57420100
Se    0.87620000    4.34640000   16.29538000      0.136671   -0.65400600   -1.09157600
Se   18.22017000   13.50111000    8.09391000     -0.376997    0.57820900   -0.48078100
Se    0.24763000   13.22528000   13.57597000     -0.227298   -0.27651900   -0.44876800
Se   19.88356000   15.42106000    5.13187000      0.358184   -1.68369000    0.54984400
Se   19.19571000   19.33289000   13.55692000      0.157770    0.37714700    1.62833900
Se   21.85257000   18.90708000    9.09244000      0.170468   -0.10206900   -0.52244800
Se   21.00409000   20.33534000   16.19497000     -0.287785   -0.29401200   -0.25000900
Se    4.09116000    0.73160000    4.98244000     -0.324756    0.29933300   -0.18271000
Se    7.30636000    1.78083000   14.67883000     -0.379128    0.18973800   -0.10057800
Se    2.15179000    6.95887000    1.54448000     -0.506741   -0.39323700   -0.19116400
Se    5.60913000    7.77935000   11.48512000     -1.178046   -0.78958400    0.30131800
Se    1.32975000   13.87698000    1.76287000      0.143769    0.47309500    0.07220100
Se    5.42712000   15.87369000   14.84454000      0.099680   -0.78227900   -0.53709900
Se    4.78104000   17.92534000    2.32818000      0.472286   -0.47660100    0.40903300
Se    4.70851000   18.26889000   11.79007000      0.302612   -0.17636600    0.15462700
Se   10.01117000    1.16141000    3.41566000      0.070015    0.57029100    0.16801900
Se   10.66914000    0.59551000   16.68802000      0.040749    0.27097400    0.20570300
Se    9.42841000    7.34124000    2.12633000      0.491886    0.16579700    0.31677000
Se    6.81275000    8.19760000   15.33096000      0.298330   -0.56889100    0.16360400
Se   10.51152000   11.01042000    4.26332000      0.642115    0.84883100   -0.50007800
Se   10.01169000   11.39089000   11.88735000     -0.080832    0.24664500   -0.08637400
Se    9.19607000   19.76532000    1.90525000     -0.258311    0.49114100   -0.00130300
Se   16.36319000   18.04113000   12.44433000     -1.233650    0.07718400    0.99261600
Se   13.88224000    3.78822000    5.99122000      0.746072   -0.13291100   -0.23136300
Se   16.61485000    1.00132000   16.03431000     -1.634814   -0.16036900   -0.18574200
Se   16.50630000    5.36570000    4.37905000      0.421856    1.13971400    0.52576200
Se   14.20811000    9.00138000   10.92517000     -1.027848   -0.63231700    0.16842000
Se   15.78316000   10.95443000    2.75460000     -0.017155    0.64626300   -0.12746100
Se   16.78998000   13.63848000   16.73333000      0.673809   -0.16225600    0.14027300
Se   16.32770000   16.06777000    3.40052000     -0.460236   -0.89766300   -0.44135500
Se   14.75730000   21.61976000   12.62749000      0.148705    0.17908400    0.22209800
Se   22.49631000   20.66650000    6.32385000      0.293329   -0.02179000   -0.14379900
Se   20.43476000    1.02868000   13.31796000     -0.171952   -0.26539700    0.05419200
Se   21.06914000    6.16622000    4.22133000      0.729570    0.89713500    0.18405200
Se   19.63528000    8.28774000   14.17827000     -0.575232   -1.16059800    0.17137300
Se    0.38606000   14.33760000    5.73445000     -0.082010   -0.14336800    0.23072900
Se    1.08417000   15.04309000   15.00518000      1.351887   -0.48411900   -0.24645500
Se   20.66297000   17.47307000    4.52867000      0.767759    1.22669200   -0.38520000
Se   21.32536000   21.45706000   10.67367000     -0.437636    0.04323700    0.52545800
Se    2.33262000    4.40525000    3.64727000      0.702230   -0.66531100   -0.23943000
Se    2.15789000    3.12979000   11.68104000      0.437773    1.22969400    0.07975400
Se   22.18731000   11.06049000    1.74658000     -0.659776   -0.45612500    0.14628500
Se    1.54884000    9.27573000   12.02299000      0.197483    0.23684500   -0.94150600
Se    0.10351000   16.72915000   18.08368000      0.197956   -1.00205800   -0.36429900
Se    4.07810000   16.06504000   12.76294000     -0.119590    0.33747100    0.27904800
Se    2.19449000   19.97257000    2.65281000     -0.640125    2.17046700    0.50761000
Se    5.46048000   19.69961000   15.54815000     -0.218269   -0.56155800   -0.13919700
Se    8.21265000    3.86479000    4.86528000     -0.133018   -0.16335200   -0.96471400
Se    9.39970000    3.28884000   13.91204000      0.722554    0.25347000    0.80844300
Se    5.20786000    6.04938000    4.96456000     -0.946287    0.54016600    0.32174600
Se    7.89433000   11.10101000   15.76318000      1.232691    0.15014800    0.51350300
Se    6.45973000   14.32788000    1.06659000     -0.089011    0.07346700    0.78773600
Se   11.21148000   14.30348000   10.72207000     -0.273871    0.90048000   -0.42528500
Se    6.38378000   20.65210000    6.77922000     -0.562636    0.40885800   -1.68055800
Se   10.67919000   20.61384000   14.41349000     -0.170513    0.05459500   -0.49371300
Se   12.68920000    3.33015000    2.13309000      0.641198    0.69207600   -0.10672200
Se   12.41082000    6.42036000   11.08078000      0.282220   -0.69534500    0.03027000
Se   13.91405000    7.98389000    2.95302000     -0.360888    0.18828300   -0.10395000
Se   11.37699000    9.26901000   14.46323000     -0.211266    0.68884800    0.23045500
Se    7.94664000   13.90442000    4.70112000      0.092137    1.31970000    0.15241200
Se   15.13885000   14.45089000    9.92306000      0.613854   -0.58429700   -0.46141600
Se   14.73177000   20.13419000    2.72883000     -1.524423    0.99812900    0.74081500
Se   13.95495000   19.59733000   13.51250000     -0.532149   -0.18970600    0.31245700
Se   18.60287000    6.34358000    1.38923000      0.059906   -1.06077700    0.01940800
Se   14.99141000    5.41302000   14.16247000     -0.081934   -1.21812100   -0.70289800
Se   19.42379000    8.62490000    3.15916000      0.639608   -0.21199200   -0.75047500
Se   19.98652000   14.47853000   10.83608000      0.370589   -0.06177400   -0.11033400
Se   21.14025000   14.88127000    1.99802000      1.310542    0.22051600    0.07437500
Se   17.32218000   17.15644000   10.52675000      1.731903    0.49422000   -0.17210700
Se   17.61160000    0.25880000    3.77139000      0.811421   -0.29268400    0.37176300
Se   16.27900000    0.89598000   10.47810000     -0.228584    0.94613500   -0.35137900
