384
22.54784000 22.54784000 18.93360000
Ge    6.34526000    4.84267000    9.64428000     -0.337964   -0.78872400   -0.14620000
Ge    4.55415000    7.62388000    2.08353000     -0.125214    0.14532800   -0.41095800
Ge    3.32226000   12.13907000    6.78154000      0.492960    0.62710300    0.05787200
Ge    6.28868000   10.00760000   17.61944000     -0.293639   -0.46168600   -0.15915900
Ge    4.17322000   13.17972000   10.04322000      0.194009    0.58613600   -0.20809800
Ge    8.84308000   17.85589000    0.00423000      0.349722   -0.80782700    1.02178800
Ge    6.38746000   18.22870000    7.88292000     -0.028959    0.55697100    0.10242200
Ge    4.96673000    1.91946000   16.08043000     -0.043500    0.19164800    0.29266600
Ge    9.23574000    7.31321000    9.44020000      0.245077    0.08768400    0.16805000
Ge   10.88771000    5.82941000    0.55680000      0.397539   -1.62814600    0.38414900
Ge   12.07190000    8.12702000    8.92071000      0.922367    0.18333200    0.14652100
Ge    9.71038000   11.82363000    0.58355000     -0.376227    0.44921400   -0.48062800
Ge   10.67151000   16.38007000    9.10162000     -0.320587    0.55145500    0.98380900
Ge   11.46257000   15.47054000    0.67079000      0.827275    0.85951300    0.47432600
Ge    9.70864000   22.20645000   10.55960000      0.928132    0.97495000   -0.84094700
Ge   13.68898000    0.80710000    1.16945000     -0.141043    0.30542000    0.44442400
Ge   19.35974000    5.40385000    9.75387000     -1.197118    1.13077400    1.46739100
Ge   17.47032000    8.11578000   17.39991000      0.476422    0.25238000   -0.31069300
Ge   17.59766000   14.66978000   11.10434000     -0.120380   -0.48347300    0.07985600
Ge   17.73358000   11.22947000   17.40135000     -0.394038   -0.40393800    0.30396800
Ge   13.37555000   15.12479000    8.08724000      0.022682    0.11278300    0.11052200
Ge   17.24191000   15.65644000    0.17883000      1.026494    0.30879400    0.69214500
Ge   15.77585000    3.72278000   10.62131000      0.116044   -0.91538300   -0.24108500
Ge   18.24898000    2.33477000   18.89325000      0.805964    0.52024900    0.25539700
Ge    1.81101000    5.38938000    9.86295000      0.436301   -0.21752600   -0.22881500
Ge   20.51214000    3.50121000    4.87708000      0.105280    0.05893700   -0.46828000
Ge   22.35538000   10.63389000    9.98675000      0.157590   -0.03886900   -0.05959700
Ge   20.91864000    9.49692000   18.88613000     -0.159135   -0.10174600    0.15326600
Ge   20.53395000   14.77846000    7.88909000     -1.094988   -0.05996000   -0.76692200
Ge    4.65698000   15.83657000   17.09490000     -0.849980    0.13732500    0.28637400
Ge   18.62450000    0.27742000    9.59639000     -0.067442    0.11927200   -0.53671400
Ge   22.54566000   19.53542000    3.69594000     -0.103594    0.27905300    0.06651400
Ge    3.66847000    8.14239000    6.78458000     -0.026907   -0.27170700    0.54558600
Ge    2.24016000    8.32488000   18.40041000     -0.566293   -1.67321100    0.10825200
Ge   21.05189000   10.38998000    3.78921000     -0.512011    0.13295200    0.28866700
Ge    4.33813000   13.03530000   14.53348000      2.404624    0.18736800   -0.05096100
Ge    4.03405000   17.17939000    5.15551000      0.216135   -0.35049000   -0.78258000
Ge    0.60057000   19.00392000    0.19041000      0.376540    0.21183800   -0.65985700
Ge    2.91930000   18.03363000    9.63803000     -0.478546    0.06977700    2.72318000
Ge    1.82091000    1.52063000   17.41476000     -0.576381   -0.58302500    1.18761500
Ge    9.58547000    2.71847000    8.27055000      1.152344    0.16701800   -0.32900400
Ge    7.30547000    5.83336000   16.29825000     -1.656680    0.54144300   -0.89260800
Ge    8.73409000    8.92063000    4.16714000      0.366676    0.11859500    0.57322100
Ge   10.46046000    7.35108000   16.71953000      0.689937    0.55591600   -1.35437700
Ge    7.33747000   15.85449000    9.55196000     -0.320571    0.63859900    1.42731300
Ge    9.98731000   14.60039000   16.81887000      0.010049    0.36016200   -0.90890900
Ge   10.27230000   21.68461000    6.89412000      0.495400    0.21548800   -0.46966200
Ge   10.51324000    1.11900000   13.45569000      1.302532   -0.45034200   -0.08183500
Ge   12.37552000    7.44712000    5.25876000     -0.291553    0.32895300    0.94938100
Ge   15.20374000    2.85802000   16.86872000     -0.992190    1.67329600    0.01562200
Ge   15.41179000    8.99683000    6.36320000     -0.442419   -0.23811100   -0.99651000
Ge   14.83695000   12.69282000   15.73807000      0.730817    1.95736200    0.26450400
Ge   12.04902000   14.20429000    5.21909000     -0.996291    0.99768000   -0.96968700
Ge   15.26939000   19.19297000   18.90526000      0.065598    0.02464400   -0.26922200
Ge   14.42920000   21.07972000    8.36979000     -0.298865    0.05529200   -0.13396900
Ge   17.93196000   21.90689000   13.44032000     -0.062172    0.23009400    0.67300300
Ge   21.95801000    4.15121000    8.40761000      0.158903   -0.76064200   -0.22848200
Ge   19.76302000    5.65599000   13.52327000     -0.358705    0.53907400    0.46183000
Ge   18.95924000   11.07372000    7.54392000     -0.386960    0.00947900   -0.05474200
Ge   21.70980000   15.12739000   16.35884000     -0.492356   -0.46212600   -0.07085300
Ge   17.71396000   16.57635000    5.67272000      1.076037   -0.54549100    0.34703400
Ge   16.45857000   18.16634000   15.64848000     -0.139434   -2.05738500   -0.16766400
Ge   22.05968000    0.60002000    6.25644000      0.117748    0.12107300   -0.09212600
Ge   18.99339000   21.73956000   17.67620000      0.947522   -0.53252200   -0.98609600
Ge    6.35745000    1.35897000    6.95097000      0.196070    0.43979700    0.55268700
Ge    3.95899000    2.62849000   13.21766000      0.221056   -0.11397900   -0.14983500
Ge    0.30886000    9.43830000    6.08811000     -0.004365    0.35619300    0.02333400
Ge    2.92313000    7.16614000   11.47348000      0.050022    0.30447500    0.30365100
Ge    0.71014000   15.64951000    3.80455000     -0.663683   -0.59508000    0.53084700
Ge    2.36785000   17.50115000   15.10471000      0.510141    1.12179400   -0.26670800
Ge    4.41361000   21.56002000    9.73968000     -1.412298    0.78407800   -0.21818500
Ge    8.83520000   19.44538000   15.74891000      0.528163    0.39227800    0.56499700
Ge    5.93704000    3.95706000    2.75520000      0.542093   -0.18208900   -0.10329200
Ge    9.35273000    2.81406000   16.82533000      0.089833    0.31506900    0.06039300
Ge    7.34440000    6.21890000    4.87010000      0.359362   -0.53581000   -0.51806200
Ge    8.50437000    9.84242000   13.40861000      0.094683    0.14952600    0.71147000
Ge    5.17013000   14.62055000    4.13948000      0.091534   -0.56915700   -0.00320500
Ge   11.61819000   11.99504000   14.97432000     -0.431154   -0.09914100   -0.06040200
Ge    8.00217000   20.58092000    4.17971000     -0.331181    0.32834000   -0.11110100
Ge    9.39239000   16.30187000   12.95106000      0.851308    0.04238900    0.03065700
Ge   12.46288000    2.47852000    4.73204000     -0.388004   -0.61737500   -0.42569400
Ge   12.75628000    4.46915000   14.81569000      0.782394   -0.64723900   -0.63215700
Ge   18.05504000    3.73405000    5.91591000     -0.709554   -0.04817500    0.37524300
Ge   14.53925000    9.28248000   14.25038000     -0.381741   -0.05093900    0.72828400
Ge   15.06846000   13.71507000    2.99491000     -0.112974    0.01757700    0.23946100
Ge   13.34047000   15.53918000   11.55485000     -0.521034    0.55399700    0.64749800
Ge    9.91794000   18.26630000    4.51330000      0.820481   -0.02740100   -0.46409900
Ge   11.90996000   20.55125000   16.75233000      0.198206   -0.34349200   -0.28555400
Ge    0.59962000    6.11806000    6.18001000     -0.175753    0.48239900   -0.34594400
Ge   22.14197000    3.90347000   13.20977000     -0.000667    0.42896900   -0.10199900
Ge   19.60586000    7.89818000    7.70131000      0.616148    0.44602900    0.39958500
Ge   16.89233000   10.80543000   12.01330000      0.568190   -0.48984100    0.96735700
Ge   20.46418000   16.85376000    0.41180000     -1.293163    0.22173700    0.40211900
Ge   19.37810000   15.46582000   13.93623000      0.861818   -0.21534600   -0.52926100
Ge   18.80379000   21.02287000    5.08823000     -0.379766   -0.46162600   -0.50555900
Ge   21.26196000   20.85285000   13.12079000      0.642973   -0.78362100    1.53428100
Ge    2.97101000    2.00541000    3.17832000     -0.102980   -0.62432300   -0.64558600
Ge    5.52577000    0.67971000   11.40356000     -0.041429    0.96712300    0.28943300
Ge    4.77116000    9.59254000    3.94877000     -0.951644    0.19687300    0.33682500
Ge    7.21355000    4.49703000   13.75433000     -0.677777   -0.13086000    0.79116700
Ge    5.05603000   12.35350000    0.90249000     -0.828852   -0.45449100    0.00154100
Ge    3.71649000   10.50692000   12.45727000      0.565114   -1.00685200    0.15772400
Ge    3.73175000    0.71543000    7.83597000     -0.157571   -0.41225400    0.24938900
Ge    7.40326000   19.74901000   12.25833000     -0.356317   -0.07522600    1.04480100
Ge    9.35847000    3.72806000    2.69507000      1.666812    0.17301100   -1.81828100
Ge    9.66015000    4.95531000   11.50409000      0.354766   -0.29228600   -0.20746200
Ge   11.58310000    8.45265000    1.77903000      0.633759    1.20091700    0.36273600
Ge   11.11849000    8.34788000   12.11310000      0.786167    0.40788000   -0.10413600
Ge    8.34895000   13.68944000    2.31322000      1.007668    0.08523200    0.18199800
Ge    8.03960000   12.49533000   10.86097000     -0.678249    0.40753300    0.49053500
Ge   11.06873000   21.49409000    2.22856000      0.136483   -0.44232800   -0.92647700
Ge   11.73435000   19.60884000   12.32566000     -0.315765   -1.83801600    1.60667400
Ge   22.37413000   22.24109000   16.43120000      0.446500   -0.79952300    0.61726900
Ge   12.96889000    1.10414000    9.58156000      0.084769    0.18173900    0.13267500
Ge   15.91194000    6.44551000    1.69250000      0.993361    0.84607100    1.12081900
Ge   15.12090000    6.46744000   11.36277000      0.890716    0.10718700    0.34524300
Ge   17.76734000   12.03898000    1.66200000      0.353500    0.44855900   -1.26933400
Ge   15.87376000   16.25561000    8.34722000      0.074738    0.41800500   -0.95953700
Ge   16.86967000   21.06979000    2.31643000      0.085168    0.72512400    0.11345000
Ge   15.34715000   20.02802000   10.93610000      0.520438   -0.41537500    0.43427100
Ge   20.63541000    1.35322000    2.53619000     -0.642967   -0.26574200    0.13145300
Ge    0.49695000    1.36711000   10.84688000     -0.056494   -0.56219200   -0.13811700
Ge   22.09189000    7.23691000    2.30677000     -0.508668    0.45371500   -1.37621600
Ge   22.12473000    9.15160000   13.99871000     -0.331597   -0.69831600   -0.46822500
Ge   20.76701000   12.67312000    0.22905000     -0.940448    1.38371700    0.01891400
Ge    0.23242000   15.46653000    9.08520000      0.015595   -0.08629900    0.31127100
Ge    4.64435000   20.78548000    4.95893000     -1.794010   -0.35612500   -1.47101800
Ge   19.26032000   18.68977000   11.16283000      0.650137   -0.31440600   -0.01880700
Se   21.20901000   22.44269000    0.20107000     -0.504702    0.32987400    0.24109900
Se    1.45849000    1.18949000    8.44191000     -0.614614    0.05517800   -0.06931300
Se    2.38089000   10.75142000    2.78651000      0.952657   -0.00307700   -0.09140200
Se    0.37552000    6.59573000   12.86660000      0.260697   -0.58291400    0.76636400
Se    0.32368000   13.39741000   18.19965000      0.399666   -0.08708200   -0.80450800
Se    0.98943000   13.10499000    9.21647000      0.283610   -0.57305000    0.26698000
Se    1.47830000   17.78953000    4.88539000      0.645655   -0.98657300    0.46004600
Se    2.27541000   15.78187000   10.41692000      0.396165    0.29943700    0.07040800
Se    4.29356000    2.07071000    0.98398000      0.369932    0.22047800   -0.07927500
Se    7.04647000    3.29038000   11.63468000     -0.284325   -0.13774100   -0.60875800
Se    6.79976000    6.17081000    1.91154000     -0.195073    0.18637100    0.92894500
Se    8.78928000    7.45689000   12.13774000     -0.409557   -0.30757900   -0.16903800
Se    7.87218000    9.93331000    0.98012000     -0.231980    0.24812300   -0.83002300
Se    6.04288000   11.17100000   13.86148000      0.399257    0.32124800    0.43290700
Se    5.39929000   20.70401000    2.19319000      0.009136   -0.27370900    0.73936500
Se    9.35618000   18.55124000   11.49422000      0.711848   -0.58023200   -1.03052000
Se   11.42736000    2.08577000    0.58061000      0.013124   -0.34061600   -0.01154900
Se   12.92473000    2.26956000   13.69319000      0.053874   -0.41459600    0.89463200
Se   12.15466000    7.72652000   18.54208000      1.127198    0.41402300   -0.55134400
Se    9.33809000   10.10195000    9.44887000      0.117423   -0.04759000    0.09413600
Se   12.83482000   15.06614000    3.08287000     -0.613950    0.14679000   -1.77629200
Se   12.64687000   10.68184000    7.96664000     -0.498468   -0.31881900   -0.92216400
Se   14.05461000   17.83212000    2.37679000     -0.561189    0.40413100   -0.64542000
Se   13.02997000   17.36719000    9.68295000      0.228817   -0.16151200   -0.19375300
Se   18.49823000    4.13081000    2.25188000      0.269678   -0.23001900   -0.28753500
Se   16.58169000    1.92800000   13.11303000      1.075711    0.43725500   -0.47933600
Se   15.53366000    8.31238000    0.05399000     -0.798718   -0.21577400   -0.41455400
Se   17.66641000    5.14788000   11.86835000      0.928819    0.46884700    0.57623900
Se   18.24579000    9.54858000    1.02953000      1.244223   -0.13580000    0.01764600
Se   16.62650000   14.40849000    6.19049000      0.053956   -0.23259800    0.74986300
Se   20.65155000   19.75898000    0.61728000     -0.164976    0.16702900    0.29531700
Se   17.47298000   19.77252000    8.16669000     -0.528278   -0.19060200   -0.94051700
Se    0.82169000    0.85836000    2.38790000      1.258348   -1.88295500    0.78419600
Se    6.62367000    7.24630000    9.23518000     -0.045998    0.91607800    0.05113100
Se    6.95895000   10.43394000    3.16198000      0.495575    0.85401700   -0.50118500
Se    4.65262000   10.68549000    8.96729000      0.379428    0.31850900    1.13188500
Se    3.66664000   14.78125000    1.69775000      1.053381   -0.00975400   -0.36463200
Se    3.12998000   12.87816000   12.55230000     -1.501498    0.60488400   -1.20472600
Se    3.47127000    0.05403000   18.42307000     -0.418706   -1.36279700   -0.11811500
Se    6.11570000   20.01571000    9.99310000      0.664678   -0.66424600   -0.34363100
Se   11.93325000    5.70418000    3.61501000     -0.020872   -0.94779700    0.77608900
Se    7.56816000    3.88886000    7.65062000     -0.699364    0.45759700   -0.23907300
Se   11.61944000   10.94274000    1.84435000      0.558383    0.02162800    0.03163200
Se    6.72668000   10.34164000   10.57105000     -0.054151    0.62911200   -0.30503700
Se    9.38039000   16.10757000    2.07347000      0.101236   -0.96152400   -0.32131000
Se   12.98547000   13.15053000   12.74514000     -0.237676   -0.36228700    0.23288300
Se    9.75048000   21.31350000   18.09303000      0.232637    0.48094600   -0.09039000
Se    8.37846000   22.25982000   12.41567000     -1.395720   -0.25721500    0.43247500
Se   15.18370000    5.16590000   18.85866000     -0.453723   -0.51567400   -0.67478100
Se   16.86769000    6.10100000    8.75435000     -0.362236    0.58255300    0.16724000
Se   14.80679000   11.20323000    0.46947000      0.078629   -0.04656900    0.05326100
Se   15.17609000   12.39126000   13.41551000      0.022168   -0.26032100   -0.80679700
Se   18.75262000   15.30867000    2.49398000     -0.452182    0.06879900   -0.68069100
Se   16.32899000   11.00266000    9.64180000     -0.173298    1.31248800   -0.35514100
Se   17.10088000   22.32477000    0.19053000     -0.656717   -0.11909100    0.49363200
Se   15.27123000   19.72498000    6.47285000      0.608025    0.15106000    0.98418100
Se    0.16813000    2.92597000    1.82752000     -0.665549    2.37720200   -0.64898700
Se   21.56722000    5.20153000   10.80582000      0.180726    0.02116900    0.40116000
Se   21.37197000    5.44676000    0.05542000     -0.192390    0.63488900    0.82239800
Se   21.06428000   10.68579000   12.41723000      0.179780    0.59831200   -0.42394600
Se   19.58407000   14.76532000   17.88632000     -1.014235    0.11420900    0.23062400
Se   20.91822000   16.48509000   11.72164000     -0.174067   -0.89966100    0.47587300
Se   20.90814000   21.68736000    4.00054000      0.577299    0.50909400    0.20471600
Se   17.96420000   20.86782000   11.12364000     -0.681857    0.81708900   -0.45034400
Se    4.15406000    5.35060000    8.34977000     -0.875614    0.41218300    0.76035400
Se   21.82708000    2.38538000   18.54593000     -0.313532    0.07278900   -0.40101000
Se    2.07722000   10.09589000    7.99257000      0.162517   -0.40860200    0.27212400
Se    1.07079000   10.45488000   18.09687000     -0.800949    0.15597400   -0.36060500
Se    3.62858000   18.20031000    7.41288000      0.856713    0.09628700   -0.91783000
Se   22.34671000   18.07563000   14.86461000      0.618656    0.05949800    0.17735500
Se    0.29686000   18.72020000   12.55077000     -0.185531   -0.06776200    0.94466400
Se    2.01681000   20.58675000   17.09287000     -0.533452    0.75472200    0.60824700
Se    3.23608000    4.54805000    5.91602000     -0.061604   -0.90241700    0.72257500
Se    5.41079000    6.38798000   18.24900000      0.040398   -0.36343500    0.09840100
Se    5.76180000    9.59241000    6.54676000     -0.401000   -0.70739500   -0.84545300
Se    3.77507000    7.16347000   16.76167000     -0.418442   -0.23272100   -0.26646500
Se    6.30195000   14.30088000   11.64229000      0.443328   -0.42542800   -0.31494000
Se    6.40664000   16.86683000   18.51460000      0.690905    0.60638200    0.06308900
Se    9.10036000   19.07356000    6.76084000      0.334092    0.22577300    0.56715600
Se    7.21356000   19.25790000   17.95559000     -1.102114    0.33784600   -0.35308300
Se   10.78838000    2.13055000   10.63609000     -0.755823   -1.41625300    0.42482300
Se   11.99587000    4.61551000   17.02870000     -0.365198   -0.56651500    0.36668400
Se   13.85871000    6.95714000    7.17330000     -0.244554    0.20610300    0.14684500
Se   13.76378000   10.91051000   16.45445000     -1.221185   -1.68120700    1.05262400
Se   11.11760000   14.52275000    7.41858000     -0.861194   -0.59167000    0.26374700
Se   14.19917000   16.02996000   17.50477000     -0.175468   -0.20788200    0.22577600
Se   12.54490000    0.58431000    7.06763000     -0.329413   -0.02065200    0.42732800
Se   13.85490000   21.48460000   18.37255000     -0.352379    0.33952500   -0.56327700
Se   13.29577000    3.63314000   10.89441000      0.390534   -0.33210300   -0.47071500
Se   21.59093000    2.80729000   15.69404000     -0.135115    0.46336200    0.15112600
Se   18.71676000   11.73754000   10.48890000      0.366536   -0.32106200   -0.16827400
Se   17.41995000    9.96618000   15.28283000     -0.672389   -0.24080500    0.47095500
Se   13.93510000   16.29785000    5.83383000     -0.010633   -0.24132100    0.41687200
Se   20.70613000   13.28618000   14.71303000     -0.782519    0.24462800   -0.40886800
Se   19.46674000   20.99620000    7.55309000     -0.322839   -0.16429600    0.76803200
Se   18.75913000   19.58004000    2.65232000      0.270269   -0.82960400   -0.21588900
Se    4.98612000    2.43821000    9.14769000     -0.048970   -1.17377600    0.19486900
Se    3.08061000    3.44227000   18.21331000      0.131654    0.50049000    0.61834800
Se    9.57575000    9.60148000    7.10655000     -0.216688    1.72409600   -0.34622000
Se    3.98662000    9.63292000    0.30512000      1.552468    0.42169200    1.10840800
Se    7.04486000   17.05619000    5.77309000     -0.736713   -1.28726400    0.37288100
Se    5.51828000   12.54825000   17.22545000     -1.212217   -0.36086500    0.57805900
Se    1.20648000   20.03719000   10.20228000      0.667587    0.06289000   -0.19272300
Se    2.30435000   17.59215000    1.76104000      0.297542    0.89368200    0.13728900
Se    8.34544000   21.96118000    8.64697000     -0.364136    0.43176700   -0.34051700
Se    7.78334000    3.30385000    0.88795000     -0.463613   -0.13381900   -0.44834900
Se   10.91950000    5.05011000    9.02125000     -1.084901   -0.51454200   -0.07235800
Se    8.87927000    6.21355000   18.03279000     -0.764848   -0.03413200    1.09901000
Se    8.51985000   12.05558000    5.90735000      0.099091   -0.13755600   -0.61684200
Se    7.64198000   14.07855000   17.19730000      0.302778    0.04778300    0.18984400
Se   11.74571000   20.83473000   10.33641000      0.159000    1.08348000   -0.99352300
Se   11.70599000   13.37433000   18.21583000     -0.842546   -0.37737900    0.61208500
Se   15.92899000    0.46715000    8.10453000      0.403971    0.27757100   -0.55992500
Se   15.71674000    2.69723000    0.44299000     -0.467360   -0.06879400    0.38400700
Se   15.98775000    4.13917000    7.82027000      0.621134   -0.54297600    0.54419600
Se   13.88852000    7.01406000   15.78277000      0.975420    1.09019400   -0.66818900
Se   16.81413000    9.10227000    8.35367000      0.261985   -1.00735800    0.71914600
Se   15.39260000   13.80519000    0.37062000     -0.828749   -0.50914600    0.99690700
Se   12.78041000   18.37033000    5.71639000     -0.224214    0.44095900   -0.12821300
Se   17.57844000   18.02265000   18.33460000     -0.394295   -0.37333300   -0.07227300
Se   20.85228000    1.99713000    9.52055000      0.620706    0.59770600   -0.57628500
Se    0.68949000   22.28986000   14.17794000     -0.055125   -0.10306400   -0.82734000
Se   19.62315000    8.21457000   10.24798000     -0.196169   -1.00009000   -0.76503400
Se    0.03533000    6.39153000   17.23112000     -0.042988   -0.24499200    0.10584600
Se   21.24153000   11.65430000    7.29263000      0.588490    0.07420300   -0.02319500
Se   20.22304000   11.34183000   17.13006000      0.029740   -0.62010300   -0.21495500
Se   19.03749000   16.97494000    7.73196000     -0.002828    0.19221600    0.90064100
Se   19.18162000   16.77664000   15.89880000      0.076337    0.23315300    0.17042700
Se    2.86978000   21.75844000   11.67635000      0.563386    0.28240800   -0.39487100
Se    2.19580000    1.92320000   15.10858000      0.140255   -0.38481900   -1.33259800
Se   22.07783000    7.67241000    8.48142000      0.148603    0.27477700   -0.72472600
Se    1.36382000   10.21955000   15.68513000      0.147549   -0.04776700   -0.21602100
Se    3.38068000   15.31627000    6.96922000      0.598572   -0.61676500   -0.27261000
Se    2.83546000   13.39929000   16.21529000     -0.966186    0.43873000    1.24228400
Se    0.01056000   17.30979000    7.25253000      0.552974   -0.18474500    0.31712300
Se    3.56569000   19.67358000   13.92014000      0.059303   -0.29610800    0.69113100
Se    6.56739000    0.17213000    2.71996000      0.502626    0.42420600   -0.49393700
Se    7.59031000   21.94547000    0.36593000     -0.535246    0.31026600    0.90798000
Se    9.91577000    7.37665000    6.74876000      0.491552   -1.60413100   -0.51875800
Se    4.44115000    4.44262000   14.89002000      0.693561   -0.27139700   -0.52206300
Se    5.22989000   12.18413000    4.82626000     -0.681588    0.19750600    0.36211200
Se    9.04182000   13.45371000   14.36796000      0.812185    0.33790000    0.74855400
Se    7.37550000   17.95881000    3.67509000     -0.364139    0.73650900   -0.39472800
Se    7.92965000   17.69643000   14.48563000     -0.370936   -0.84903800   -0.31031400
Se   14.51363000    0.51623000    4.08284000     -0.752910    0.11605500   -0.13531200
Se   13.70328000    0.54365000   16.33176000      0.044597    0.19332700   -0.03431500
Se   13.15555000    9.78684000    4.80425000     -0.049293    0.34844900    0.39726000
Se   10.85617000    5.58452000   13.88777000      0.027548    0.68465400   -0.25651200
Se   13.70598000   12.80220000    5.59282000      1.974606   -1.57109200    0.46936400
Se   13.17149000   14.57491000   15.84443000      0.445928    0.42231300   -0.58750900
Se   11.66344000   19.14896000    7.76331000     -0.046253   -0.13724000   -0.22098000
Se   12.15014000   18.86673000    1.23035000     -0.141800   -0.00266800    0.20219800
Se   19.50897000    1.50887000    6.30518000      0.073493   -0.04112900    0.24816300
Se   18.77239000    1.32382000   16.18085000      1.133015    0.12206200    0.72246400
Se   19.67193000    5.18655000    7.31306000      0.620447   -0.22459500   -0.84100800
Se   18.92848000    6.10377000   16.01031000      0.126739    0.03946600   -0.50523700
Se   18.69733000   11.98341000    3.84235000      1.320911    0.22717700    1.52770600
Se   17.12467000   14.75895000   13.55191000      0.298404   -0.06547600   -0.30890400
Se   16.64151000   18.42199000    4.34734000      0.564886    0.28923600    0.26448100
Se   16.70160000   20.31169000   16.20644000      0.418364    2.40662500    0.30878800
Se    2.09511000    7.93564000    4.76609000     -0.387676   -0.21518600    0.64235500
Se    2.76726000    6.62443000   13.92416000     -0.620085   -0.18178900   -0.76513100
Se    1.79672000   11.44748000    4.92166000     -1.375861    0.13950400   -0.25625500
Se    3.78165000    9.97728000   15.18161000     -0.101614    0.59853200   -0.66779500
Se    5.81014000   14.75624000    8.00631000     -1.132842   -0.55202200   -0.97998500
Se    3.60581000   18.18963000   17.26713000     -0.336347   -0.98758200   -0.27344800
Se    2.69800000   20.33140000    6.87053000     -0.387617    0.89304500    0.01572600
Se    5.31872000   22.12689000   14.93184000      0.409149    0.08345000   -0.18435600
Se    9.07502000    1.11238000    5.70727000      0.069708   -0.59664300   -0.03243000
Se    7.07628000    1.71980000   17.66589000      0.172111   -0.27574600    0.38003700
Se   13.63443000   11.26737000    9.91315000     -0.223638    0.47005200    0.30385200
Se   10.04224000   10.46542000   17.44651000     -0.587505   -0.26453800   -0.72928300
Se    8.40825000   13.81416000    8.83600000      0.369955   -0.70641900   -0.59787500
Se   12.10387000   16.86488000   13.56740000     -0.695144    0.43242300   -0.61827000
Se   11.15793000   20.75238000    4.50176000      0.335139   -0.42510100    0.94860000
Se   10.65145000   17.49386000   17.47274000     -0.026345   -0.17659700   -0.67037000
Se   11.17434000    4.44694000    5.87351000     -0.336146   -0.05786500   -0.05240000
Se   17.78564000    4.42858000   17.47632000     -0.214534    0.29578700   -0.51476400
Se   17.33584000    7.46667000    5.35673000     -0.768539   -0.23991200   -0.10656500
Se   16.36245000    8.37663000   12.70794000      0.716953   -0.69013000   -0.27568500
Se   17.01926000   11.00965000    5.47915000      0.482487    0.04932500   -0.16204500
Se   13.78353000   18.39437000   16.90923000      0.491086   -0.40670700   -0.48535800
Se   15.88045000    2.34728000    4.77336000     -0.320734    0.27932300    0.04421000
Se   19.04566000    2.86517000   12.58819000     -1.158324   -0.16385600    0.05983200
Se    0.27796000    3.46511000    5.66436000     -0.303375   -0.82824400    0.63727200
Se    1.01306000    4.29388000   16.45053000     -0.279391    0.62850900   -1.16770900
Se   18.15130000   13.54684000    8.01895000     -0.316478    0.07588000   -0.30120300
Se    0.28155000   13.22704000   13.63179000     -0.894084   -0.88395000   -0.94926000
Se   19.84232000   15.28403000    5.09292000     -0.077851    0.39689000    0.19445900
Se   19.24048000   19.32634000   13.71089000      0.472066    0.25902500   -0.34806700
Se   22.05581000   18.74232000    9.09799000     -1.221976   -0.26753800   -0.10174700
Se   20.81054000   20.27360000   16.18247000      0.076234    0.32738900    0.31899500
Se    3.73482000    0.69004000    5.05174000      0.364694    0.44314700    0.49666100
Se    7.23781000    1.77954000   14.52523000     -0.287588    0.46339200   -0.02439000
Se    1.98388000    7.09419000    1.71084000      0.571742   -0.06187400   -0.54837800
Se    5.51617000    7.58949000   11.42331000     -0.388821   -0.38950300    0.15327600
Se    1.53148000   14.04022000    1.69515000     -1.281642   -0.11903800    0.57327000
Se    5.60585000   15.73565000   14.85272000      0.061634   -0.70703200   -1.05607100
Se    4.69630000   17.89182000    2.50584000      0.294419   -0.29254500    0.04642800
Se    4.76875000   18.25602000   11.71289000     -0.336497   -0.30941800    0.02698500
Se   10.11783000    1.41177000    3.40804000      0.095139   -0.61415000    0.09932600
Se   10.66977000    0.58017000   16.66395000     -0.089833    0.01526500    0.10627400
Se    9.46419000    7.47742000    2.00595000     -0.591113    0.06378300    0.62747300
Se    6.69041000    8.18098000   15.29826000      0.527554   -0.69674400    0.24080200
Se   10.50052000   11.06537000    4.09435000     -0.908739   -0.09988200    0.35241900
Se   10.19694000   11.38637000   11.79627000     -0.845895   -0.03769700    0.16817100
Se    9.18023000   19.59728000    2.07766000      0.454803    0.52870800   -1.12816400
Se   16.39520000   17.93380000   12.68345000     -0.283821    0.14293100   -0.73305800
Se   14.09858000    3.80406000    5.92126000      0.266933   -0.11531100   -0.29232900
Se   16.40368000    1.07550000   16.10475000     -0.082031   -2.23711200   -0.81815500
Se   16.62884000    5.38952000    4.36451000      0.084544    0.65769900    0.39549900
Se   14.00030000    9.10420000   10.87224000     -1.181926   -0.53500500   -0.12799900
Se   15.85408000   10.98342000    2.71670000     -1.346337    0.13605800   -0.05010400
Se   16.76002000   13.50033000   16.89830000      0.737369    0.06752100   -1.06142600
Se   16.15422000   16.16568000    3.39604000      0.357291   -0.86315400   -0.63112800
Se   14.81777000   21.84611000   12.53686000     -0.015178   -0.28928700    0.37715500
Se   22.50028000   20.45067000    6.16917000      0.460042    0.38973300   -0.14996300
Se   20.44031000    1.05945000   13.24867000     -0.000416   -0.48759200    0.30788200
Se   21.17107000    6.31564000    4.26703000      0.159833   -0.13105700    1.11969500
Se   19.71257000    8.33421000   14.14405000      0.151382   -1.05502500    0.16909400
Se    0.49566000   14.23312000    5.94320000      0.031800    0.63037000   -0.49238900
Se    1.21530000   14.99307000   14.84435000      1.276105    0.26499600    0.16308700
Se   20.73915000   17.55456000    4.50846000      0.204639   -0.26543700   -0.17408000
Se   21.40346000   21.36008000   10.88920000     -0.043856    0.75519000   -1.83319900
Se    2.47165000    4.27848000    3.61610000      0.170433    0.29528100   -1.14313900
Se    2.12358000    3.46165000   11.67772000     -0.178102    0.26585000   -0.17110100
Se   22.13534000   11.20707000    1.60363000     -0.220559   -0.96355400    0.77243500
Se    1.49843000    9.30303000   11.99466000      0.091467    0.30189800   -0.76083000
Se   22.46654000   16.63848000   18.13182000      2.317887    1.56333400    0.01496700
Se    4.06100000   16.18685000   12.78944000     -0.103491   -0.17749100    0.36133900
Se    2.44011000   20.06310000    2.83482000     -0.867071   -0.25555500   -0.39255300
Se    5.64898000   19.85168000   15.58895000     -0.796106    0.08719200   -0.50994600
Se    8.23952000    3.64636000    4.62832000     -2.603323    1.37327700    1.93501100
Se    9.59283000    3.30887000   14.00672000     -0.290161    0.74517000    0.81301400
Se    4.83189000    6.08107000    5.14106000      0.693226    0.79219600   -0.41209000
Se    7.92874000   11.17696000   16.01454000      1.402261   -0.36291300   -0.65072500
Se    6.45662000   14.28679000    0.94364000      0.961554    1.23560400    0.41204200
Se   11.32471000   14.34661000   10.64618000     -0.241421    0.47156700   -0.50108800
Se    6.48824000   20.67532000    6.38910000      0.573317    0.03608200    1.04466400
Se   10.68872000   20.75605000   14.17179000      0.135674    0.17733200    0.60990500
Se   12.56932000    3.56609000    2.05168000      0.656321    0.30365800    0.44328900
Se   12.68169000    6.24872000   11.03523000     -0.382943    0.39755000    0.19179300
Se   13.68482000    7.76368000    2.89417000      0.676787    0.24036300   -0.62330200
Se   11.42709000    9.41441000   14.41313000     -0.431563    0.03860000   -0.24892700
Se    7.89280000   14.05496000    4.80235000      0.414473    0.46774800   -0.07817500
Se   15.20718000   14.42697000    9.88396000      0.703021   -1.15541600    0.36968700
Se   14.52782000   20.11997000    3.11208000      0.656272    0.40691200    0.13337000
Se   14.01631000   19.71649000   13.41576000     -0.261201    0.07065100   -0.10485000
Se   18.68020000    6.35986000    1.50023000     -0.541391   -0.77142100   -0.34129700
Se   14.99718000    5.53388000   14.23250000     -0.522740   -0.19351300    0.24996300
Se   19.26209000    8.68269000    3.17869000      0.536608    0.20299600   -0.44694200
Se   20.07704000   14.19680000   11.09375000     -0.158745    0.60304500   -0.35899500
Se   21.22865000   15.02772000    1.95606000     -0.145426   -0.53425600    0.62837800
Se   17.26558000   17.04317000   10.30584000      0.934921    0.67141600    0.98940900
Se   17.75296000    0.39686000    3.82947000      0.214347   -0.09173000   -0.43779900
Se   16.15331000    0.99200000   10.48202000      0.055855    1.16655500    0.33341900
