384
22.54784000 22.54784000 18.93360000
Ge    6.38970000    4.65078000    9.71754000     -0.551977    0.51745500   -0.90034200
Ge    4.58570000    7.63414000    2.32437000     -0.001339    0.03738800   -0.57645800
Ge    3.24029000   12.40817000    6.94692000     -0.160225   -0.44431100   -0.68766400
Ge    6.46904000    9.75180000   17.48255000     -0.528590   -0.24711000   -0.12173200
Ge    4.06782000   13.29594000   10.07996000      0.482977    0.22122200   -0.31190000
Ge    8.79073000   17.71769000    0.02916000      0.067971   -0.31003200    0.69688700
Ge    6.40277000   18.17216000    7.95277000     -0.203757    0.24409100   -0.39313000
Ge    5.01063000    1.95309000   16.04239000     -0.440081    0.85543500    0.54660500
Ge    9.30054000    7.35237000    9.29387000      0.146431   -0.50718100    0.42331500
Ge   11.03802000    5.81598000    0.63471000     -0.088159   -0.82435300   -0.08437900
Ge   12.22675000    8.07264000    8.73934000      0.493055    0.30778400    0.50711700
Ge    9.63378000   11.78157000    0.56020000      0.160736    0.97320400   -0.22232700
Ge   10.61655000   16.34874000    9.33118000     -0.108750    1.25347900   -0.11649200
Ge   11.47022000   15.51330000    0.80988000      0.824168    0.02406800   -0.47046200
Ge    9.84535000   22.28812000   10.71314000      0.452484    0.28015800   -0.83216700
Ge   13.59114000    0.72968000    1.24539000     -0.196828    0.41063900    0.13493800
Ge   19.35888000    5.55593000    9.92938000     -1.436322    0.64064600   -0.12463300
Ge   17.51350000    7.88902000   17.44527000     -0.162249    0.68109100   -0.03000000
Ge   17.62684000   14.58884000   11.15314000     -0.151591   -0.05585500   -0.00009800
Ge   17.61430000   11.38240000   17.53178000      0.362553   -2.74465700    0.49885200
Ge   13.37908000   15.05998000    8.04097000     -0.820285   -0.05898700    0.18642700
Ge   17.44696000   15.71297000    0.01014000     -0.164638    0.02763000    1.03827600
Ge   15.76418000    3.62588000   10.71397000     -0.196007    0.46909900   -0.19932700
Ge   18.23625000    2.36748000    0.06326000      0.715912    0.27568100   -0.31457600
Ge    1.81770000    5.48406000    9.84435000      0.796087    0.50654500   -0.24257500
Ge   20.43700000    3.43616000    4.85338000      0.464355    0.06556600    0.06688000
Ge   22.31822000   10.60894000   10.03285000      0.632359   -0.24036100   -0.86788600
Ge   20.72808000    9.35145000    0.11209000      0.211313    0.34509600   -0.15244200
Ge   20.43229000   14.79687000    7.80999000     -0.582111   -0.28327700   -1.04760600
Ge    4.74359000   15.61167000   17.09295000     -0.661330    0.34904100    0.03583200
Ge   18.44246000    0.27302000    9.36504000      0.261549   -0.00412000   -0.57593400
Ge    0.16513000   19.61641000    3.85450000     -0.667202   -0.21947100   -1.87434900
Ge    3.47860000    8.22218000    6.95535000      0.461827   -0.40878000    0.48994400
Ge    2.17998000    8.10988000   18.35581000     -0.165153    0.32270400    0.69531600
Ge   21.05890000   10.39000000    3.70550000     -0.464731    0.28865400    0.66829300
Ge    4.42626000   13.09318000   14.53347000      1.238239    0.02603200   -0.31648300
Ge    3.99141000   17.00138000    5.26199000      0.512438   -0.41508200   -1.24475200
Ge    0.82277000   19.30661000    0.04117000     -0.065757   -0.80668300    0.11394600
Ge    2.73331000   17.98680000    9.73691000      0.371742    0.41948700    0.72356400
Ge    1.53535000    1.55936000   17.54703000      0.884838    0.01955700    0.50198900
Ge    9.61520000    2.78587000    8.32676000      1.197690   -0.39290900   -0.09623000
Ge    7.23144000    5.83796000   16.22593000     -1.194122    0.20268100   -0.30978100
Ge    8.61819000    8.76659000    4.32595000      0.486564    0.12405900   -0.01047900
Ge   10.59723000    7.33457000   16.67553000     -0.102433   -0.33176800   -0.24184800
Ge    7.27191000   16.01169000    9.60506000     -0.478797   -0.95443300    0.61824700
Ge    9.99588000   14.69403000   16.70510000      0.808924    0.26000700   -0.15946000
Ge   10.26334000   21.72712000    6.84516000      0.171790    0.19988600   -0.14284200
Ge   10.51450000    0.98527000   13.45603000      0.802709    0.29594300    0.15776200
Ge   12.46181000    7.70892000    5.35378000     -0.512297   -1.63326800    1.25642800
Ge   15.12346000    2.92636000   16.96011000      0.109481    0.27701600   -0.24315700
Ge   15.53500000    9.03058000    6.29196000     -0.924957    0.06218100   -0.08408800
Ge   14.88955000   12.74847000   15.80744000     -0.947736   -0.62055700   -0.49772100
Ge   11.99593000   14.19848000    5.26847000      1.115294   -0.58057900   -1.48196200
Ge   15.22263000   19.45329000   18.81341000      0.672020   -0.34054200   -0.04767500
Ge   14.52277000   21.03207000    8.25489000     -0.708416   -0.43488200    0.84996100
Ge   17.94795000   21.99433000   13.46323000      0.206334    0.10134900    0.69264900
Ge   21.99625000    3.99100000    8.50724000     -0.058018   -0.26964500   -0.26692900
Ge   19.63169000    5.60441000   13.55830000      0.764677    0.73625800    0.60867100
Ge   18.95948000   11.03327000    7.48049000     -0.443009    0.54234500   -0.05667800
Ge   21.86635000   14.94498000   16.31719000      0.464273    0.39432400    0.42529300
Ge   17.73123000   16.57607000    5.68116000      0.332566   -0.84373100   -0.52720000
Ge   16.29906000   18.08215000   15.56520000      0.127365    0.02841900    0.29339300
Ge   22.18470000    0.60930000    6.24607000     -0.434850    0.18065600   -0.19947700
Ge   19.11269000   21.78399000   17.57985000     -0.064324    0.06954700   -0.34707500
Ge    6.57820000    1.20240000    7.08323000      0.384554    0.32026100    0.29439600
Ge    3.77370000    2.54774000   13.08944000      0.324308    0.22063200    0.07546400
Ge    0.16438000    9.39454000    6.06587000      0.008685    0.68411900    0.34192000
Ge    3.00324000    7.28093000   11.62001000     -0.745009    0.00469500   -2.96749400
Ge    0.56970000   15.64604000    3.90038000     -0.372206   -0.19084300    0.21493400
Ge    2.49990000   17.61579000   14.94886000      0.375662    0.66267300    0.60792600
Ge    4.49286000   21.37300000    9.75073000     -1.204064    1.17502000   -0.30715100
Ge    8.93134000   19.57243000   15.93824000      0.036383   -0.85457900   -0.09500800
Ge    5.94741000    4.13855000    2.84109000     -0.072872   -0.82460500    0.24997400
Ge    9.31549000    2.71210000   16.68604000     -0.075809    0.63154600    0.71805900
Ge    7.15996000    6.15715000    4.92779000      0.272938   -0.31964800   -0.42580000
Ge    8.54721000    9.84398000   13.52150000      0.241669    0.16601000    0.48401100
Ge    5.17724000   14.62405000    4.08556000      0.079983    0.25083200   -0.17188800
Ge   11.55925000   11.94284000   15.14405000     -0.097834    0.30490900   -0.34220800
Ge    8.12183000   20.69780000    4.16661000     -0.187736    0.22356000   -0.40035200
Ge    9.33330000   16.25594000   12.95300000      0.941417    0.00115800   -0.37801100
Ge   12.48582000    2.30068000    4.84231000     -0.529110    0.36558300    0.16771600
Ge   12.96736000    4.47436000   14.82381000     -1.173305   -1.10120100   -0.40655200
Ge   17.92105000    3.61728000    5.97011000      0.252367    0.01211000    0.85343300
Ge   14.63034000    9.35811000   14.28452000     -0.197898    0.13884400    0.88423400
Ge   15.01836000   13.80595000    3.06576000     -0.549279   -0.30356900    0.00637600
Ge   13.35907000   15.65249000   11.52987000     -0.034186   -0.37944300    0.95770900
Ge    9.99060000   18.15322000    4.49248000      0.149858    0.55554700   -0.08723300
Ge   12.11427000   20.52793000   16.66316000     -0.850836   -0.52001200   -0.61006600
Ge    0.66820000    6.19802000    6.02322000     -0.321824   -0.27880800    0.55481100
Ge   22.08910000    3.91619000   12.93178000      0.210650    0.18981200    0.36973900
Ge   19.59482000    8.15664000    7.69541000      1.095061   -0.58053000    0.35879700
Ge   16.96394000   10.63597000   12.00947000      0.756596    0.85626700    0.00881900
Ge   20.37928000   16.83689000    0.45041000      0.274398    0.46441600   -0.14214800
Ge   19.30277000   15.61219000   13.88273000      0.957112   -0.73946000   -0.60107300
Ge   18.68475000   21.01587000    4.94091000      0.151053   -0.87168700    0.79508200
Ge   21.35687000   20.78939000   13.07921000     -0.216609   -0.09182800    1.45716100
Ge    3.02202000    1.96275000    3.11936000     -0.242047   -1.10467100   -0.53036800
Ge    5.45110000    0.80573000   11.33264000     -0.086777    0.47942300    0.30178700
Ge    5.01964000    9.61567000    4.09897000     -1.071939    0.08037300    0.09368200
Ge    7.24274000    4.62597000   13.71963000     -0.771762   -0.13641300    0.35625400
Ge    5.16167000   12.29258000    0.93058000     -0.569065   -0.29977800   -0.37579500
Ge    3.83648000   10.33243000   12.50865000     -0.043450    0.43928300   -0.22681700
Ge    3.58018000    0.75317000    7.87227000      0.527016   -0.72216900   -0.04486500
Ge    7.30406000   19.53699000   12.28871000      0.904219   -0.05591500    1.74809000
Ge    9.37754000    3.76626000    2.49376000      0.569797    0.29760800    0.53240800
Ge    9.78413000    5.05188000   11.45521000     -0.154166   -0.47808900    0.05178500
Ge   11.58528000    8.64426000    1.84635000     -0.250560   -0.36308300   -0.17222100
Ge   11.22686000    8.37126000   12.00448000      0.833345    0.60433400    0.17239900
Ge    8.41757000   13.72221000    2.32773000      0.710232   -0.18237400    0.60863700
Ge    8.03573000   12.48969000   10.78538000     -0.074795    1.38165500    0.90969600
Ge   11.11102000   21.45899000    2.18461000      0.219469   -0.47486900   -0.36933800
Ge   11.90134000   19.56177000   12.45803000     -1.616172   -1.32542900   -0.24872100
Ge   22.29963000   22.22345000   16.49183000     -0.096267   -0.64438700    1.21617700
Ge   13.19959000    1.07615000    9.45305000     -0.413079    0.05291900    0.11569500
Ge   15.85315000    6.40733000    1.80416000      0.747685    0.46811200   -0.07076500
Ge   15.24812000    6.54160000   11.41816000      0.259973   -0.62500600   -0.56405000
Ge   17.63041000   12.12393000    1.70069000      1.015021    0.26042400   -0.77870800
Ge   15.78578000   16.20221000    8.10432000      0.374327    0.01167000   -0.09731400
Ge   16.99872000   21.20670000    2.31456000     -0.829996    0.57470000   -0.36598000
Ge   15.38868000   20.07050000   11.01277000      0.642872   -0.42841100    0.15252200
Ge   20.37392000    1.31099000    2.68616000     -0.167213   -0.22138000   -0.13118100
Ge    0.51830000    1.24221000   10.81469000     -0.155196   -0.24465400    0.19417500
Ge   22.07334000    7.02135000    2.20173000     -0.581817    0.62424200   -0.81526400
Ge   22.29587000    9.14429000   13.99609000     -0.493798   -0.50087000   -0.63552900
Ge   20.69775000   12.87552000   18.89331000      0.287920   -0.47018700    0.77285200
Ge    0.17261000   15.42132000    9.16037000     -0.393856   -0.27388500   -0.13332600
Ge    4.46218000   20.78555000    5.02501000     -1.075132    0.11928200   -1.22383600
Ge   19.10001000   18.41106000   11.02801000      1.539565    1.05866800    0.84187200
Se   21.22447000   22.41786000    0.37337000     -0.798707    0.07005100    0.12423900
Se    1.31352000    1.19521000    8.39936000     -0.511604    0.18918700    0.21800900
Se    2.73125000   10.78709000    2.81766000      0.123934    0.13140700    0.47490500
Se    0.38122000    6.53565000   12.94545000      0.071164   -0.02833400    0.81400100
Se    0.47316000   13.40489000   18.22795000     -0.291809   -0.07881600   -0.71343300
Se    1.00146000   12.98536000    9.17220000      0.174381   -0.26956100    0.20418600
Se    1.55095000   17.81041000    4.84602000      0.742647   -1.65140300    0.26462600
Se    2.27941000   15.69181000   10.29074000      0.565621    0.05125900    0.70340100
Se    4.36782000    2.00960000    0.98973000     -0.053175    0.23378600   -0.35519500
Se    7.05708000    3.22009000   11.64071000      0.193472   -0.23695300    0.12295700
Se    7.01300000    6.14731000    1.98516000     -0.646517    0.93582300    0.65305600
Se    8.90863000    7.47718000   12.05653000     -0.704508   -0.07990700   -0.10497000
Se    7.91287000    9.99759000    0.90045000     -0.650839    0.10476000   -0.07882600
Se    6.04179000   11.08168000   13.76769000      0.635400    0.66090800    0.08813100
Se    5.25116000   20.62607000    2.07941000      0.431458    0.17840400    0.78363000
Se    9.35363000   18.44371000   11.41440000      0.294646   -0.44533900   -0.82607100
Se   11.40722000    2.12244000    0.54106000      0.523799    0.12582200    0.57791900
Se   12.91172000    2.23393000   13.70170000      0.480156    0.08506200    0.99119400
Se   12.22782000    7.86860000   18.59124000      0.129717   -0.04128900   -0.66345500
Se    9.22117000   10.05227000    9.36458000     -0.133714    0.36333200    2.76957400
Se   12.75038000   15.13920000    3.01948000     -0.431238   -0.20355100   -0.76606500
Se   12.57826000   10.68192000    7.84951000      0.209727   -0.02250500    0.16535500
Se   13.90847000   17.85929000    2.28080000      0.339041    0.98432300    0.08805200
Se   13.22316000   17.35220000    9.75736000     -0.277913    0.35723000   -1.07571600
Se   18.55567000    4.07151000    2.09992000      0.254385   -1.04825200    0.45481800
Se   16.76154000    2.05347000   12.94022000      0.031930   -0.05028800    0.42968400
Se   15.26159000    8.20044000    0.03101000      0.651015   -0.18564900   -0.31244500
Se   17.77396000    5.12182000   11.98497000     -0.251308    1.01437100   -0.10862200
Se   18.28588000    9.37009000    1.22126000     -0.287836    1.34319700   -1.72383400
Se   16.74425000   14.21196000    6.18386000     -1.291769    0.90780700   -0.50525500
Se   20.49118000   19.61802000    0.65555000      0.226753    0.62676200    0.14810200
Se   17.35354000   19.77305000    8.17368000     -0.346590    0.18095200   -0.68138700
Se    0.94237000    0.77052000    2.52022000      0.114249    0.53184900    0.02842600
Se    6.69036000    7.27487000    9.14929000     -0.222108   -0.26555700    0.38618500
Se    7.08547000   10.55622000    3.21954000      0.438756    0.57202400   -0.41657900
Se    4.74471000   10.73627000    9.03755000     -0.186994    0.43279000    0.68103200
Se    3.93767000   14.70377000    1.67700000     -0.395292   -0.44066300   -0.37011200
Se    3.11727000   13.01107000   12.41175000     -0.740002   -0.89043000    0.37381900
Se    3.30109000    0.06280000   18.57070000     -0.189573   -0.59621100   -0.08129200
Se    6.19403000   19.79552000   10.13553000      0.317102    0.29242500   -1.54709200
Se   11.95885000    5.81349000    3.71552000      0.154366   -0.53481600    1.12406000
Se    7.72958000    4.01919000    7.61058000     -1.542830    0.05458800    0.12368600
Se   11.61034000   10.97118000    1.92846000      0.611249    1.27816800   -0.72127800
Se    6.74134000   10.49979000   10.40766000     -0.665415   -0.59425500    0.08918700
Se    9.45872000   16.03009000    2.20391000     -0.114643   -0.38751300   -0.41833800
Se   12.85827000   13.26735000   12.90834000      0.515240   -0.70598500    0.59924000
Se    9.81563000   21.35252000   18.04682000      0.299406    0.26743800   -0.06164300
Se    8.34454000   22.25180000   12.51759000     -1.098051   -0.34061100   -0.24098500
Se   15.16722000    5.11707000   18.81547000     -0.020485    0.13100200    0.32720500
Se   16.82297000    6.22535000    8.64919000     -0.298191    0.37357400    0.71870700
Se   14.76106000   11.08429000    0.49129000      0.114742   -0.07657400   -0.34715100
Se   15.29506000   12.32551000   13.39128000     -1.046043    0.06182800   -0.24559400
Se   18.55937000   15.44444000    2.37992000     -0.296237    0.01956000   -0.36151700
Se   16.34835000   10.97683000    9.59595000     -0.305972    0.79447600    0.02895700
Se   16.93608000   22.31348000    0.10897000      0.163876   -0.25835300    0.49278400
Se   15.30309000   19.57129000    6.52566000      1.105919    0.07006700    0.57645200
Se    0.08103000    3.06337000    1.85871000     -0.005288   -0.37944300   -0.02946000
Se   21.52858000    5.35764000   10.87413000      0.534957   -0.11877800   -0.07971800
Se   21.42068000    5.47542000    0.17805000     -0.664544   -0.34171700    0.91778100
Se   21.16720000   10.80409000   12.15529000     -0.303516    0.36820500    0.96849900
Se   19.59393000   14.80791000   17.76876000     -0.482550   -0.05400100   -0.17528700
Se   20.77564000   16.40657000   11.69588000      0.069441   -0.22688900    0.48803100
Se   20.85758000   21.78406000    4.13963000      1.066559    0.34321900   -0.32642200
Se   18.09371000   20.98699000   11.14286000     -0.397820    0.13326900   -0.54200100
Se    4.02672000    5.43461000    8.38710000     -0.541550    0.20448200    0.50630500
Se   21.74846000    2.34585000   18.62024000     -0.181236    0.14773600    0.24911800
Se    2.06248000    9.98450000    8.07384000      0.264505    0.17432900    0.09387800
Se    0.98415000   10.43191000   18.21216000      0.004698   -0.55665400   -0.41293200
Se    3.62182000   18.18018000    7.36453000      0.576361    0.71252900    0.79235300
Se   22.36422000   18.10142000   14.72938000      0.008575   -1.85117500    4.94797000
Se    0.16605000   18.77516000   12.77807000      1.201987    0.82537100   -4.37414700
Se    1.96136000   20.70346000   17.14816000     -0.331400    0.21816700    0.22390700
Se    3.01958000    4.37040000    5.95602000      0.830248    0.33026000   -0.08091400
Se    5.49442000    6.51373000   18.28605000     -0.078317   -0.25532700    0.00323000
Se    5.78134000    9.42164000    6.56459000     -0.591514   -0.38255000   -0.83911500
Se    3.85086000    7.23040000   16.76847000     -0.214034   -0.32242200   -0.24251600
Se    6.14922000   14.29554000   11.63917000      0.752132   -0.24561700   -0.68011500
Se    6.35978000   16.85018000   18.53842000      0.590473    0.61774000    0.02876800
Se    9.16489000   19.22326000    6.77103000     -0.135336   -0.18984600    0.39296600
Se    7.21702000   19.23958000   17.83928000     -0.754708    0.48924300   -0.05500300
Se   10.88413000    2.00889000   10.72966000     -0.847471   -1.20009500    0.42005300
Se   12.01695000    4.63190000   16.99331000     -0.517987   -0.23920700    0.43314600
Se   13.92234000    6.75448000    7.34298000     -0.437718    1.16683000   -0.54502500
Se   13.54228000   10.78847000   16.42139000      0.785915    0.40817700    0.30423700
Se   10.97701000   14.58021000    7.29592000     -0.662793    0.11656100    1.16965300
Se   14.28242000   15.95077000   17.59391000      0.311909    0.42322400    0.83568600
Se   12.46597000    0.49330000    6.89838000      0.057852    0.12895900    0.46035700
Se   13.73894000   21.50711000   18.23133000      0.087908    0.58250900    0.95809500
Se   13.26457000    3.52494000   10.88311000      0.604061   -0.21860700   -0.45581400
Se   21.79813000    2.88379000   15.72474000     -0.802943    0.46800100    0.03818200
Se   18.88171000   11.82306000   10.41801000     -0.523346   -0.98012600    0.07658000
Se   17.31112000    9.77648000   15.45462000     -0.586514   -0.09968500    0.74913800
Se   13.84096000   16.34206000    5.74354000      0.266271   -0.98495500    0.40493000
Se   20.64155000   13.28703000   14.72585000     -0.271242    0.29445700   -0.70798700
Se   19.67080000   20.98932000    7.46232000     -0.979345   -0.30739300    0.30169900
Se   18.83454000   19.68371000    2.56291000      0.447993   -1.03758400   -0.20212800
Se    4.89851000    2.28914000    9.34703000      0.136826   -0.05350500   -0.24608400
Se    3.06258000    3.53631000   18.24367000     -0.269477   -0.65130200    0.57181500
Se    9.55661000    9.63115000    7.29480000      0.471931    0.14589900   -4.03723700
Se    4.04596000    9.65207000    0.47304000      0.464624   -0.47343200    0.59832600
Se    6.96948000   16.86663000    5.85104000     -0.461799    0.02211000   -0.54840500
Se    5.52677000   12.47681000   17.12413000     -1.075698   -0.57461600    0.79803000
Se    1.20524000   20.03367000   10.13711000      0.214095    0.34298700   -0.05266500
Se    2.27033000   17.50717000    1.69030000     -0.177388    0.90570300   -0.15958700
Se    8.48631000   22.01585000    8.73898000     -0.500559    0.34853700   -0.19357200
Se    7.57649000    3.25560000    0.98939000     -0.345943   -0.27318100   -0.89214200
Se   10.94005000    4.84704000    9.13641000     -0.631640    0.40649600   -0.15991900
Se    8.75231000    6.14347000   18.01085000      1.062839    0.34340700    0.57701000
Se    8.61939000   12.20971000    5.94744000     -0.216854    0.07451700   -0.61857200
Se    7.80211000   14.00199000   17.28587000     -0.265192    0.02882000    0.44155600
Se   11.76600000   20.75815000   10.25739000      0.093719    0.43628100    0.25165300
Se   11.72433000   13.30933000   18.33268000     -0.938144    0.56484800    0.34606600
Se   15.65462000    0.57357000    8.08848000      0.783534    0.92062400   -0.73448100
Se   15.78062000    2.65973000    0.54852000     -1.071638   -0.21166400    0.03146400
Se   16.06799000    4.11391000    8.01237000      0.231783   -0.64140900    0.19573700
Se   13.85628000    7.25850000   15.87079000      1.067134    0.12353500   -1.04755400
Se   17.08819000    9.08633000    8.30193000     -0.658501   -0.68571200    0.75163100
Se   15.35457000   13.98377000    0.29757000     -0.482347   -0.16275100    1.28947000
Se   12.68928000   18.39419000    5.76896000     -0.186407    0.35029400   -0.97651000
Se   17.65461000   18.07851000   18.30888000     -0.594466   -0.18248600   -0.11224200
Se   20.79102000    2.03823000    9.70599000      0.391007    0.19482800   -0.46043600
Se    0.61683000   22.11537000   14.34628000      0.446451    0.00160300   -1.99029400
Se   19.56355000    8.02119000   10.24884000     -0.185693    0.09240000   -0.46605600
Se    0.02463000    6.44280000   17.40842000      0.372135    0.07717000   -0.65592200
Se   21.17600000   11.70048000    7.20730000      0.810545    0.07813100   -0.12479600
Se   20.08718000   11.22557000   17.02797000      0.145211   -0.33170300    0.60688600
Se   19.02085000   16.90164000    7.63359000      0.345873    0.87136900    1.61874300
Se   19.07867000   16.63221000   15.95954000     -0.154718    1.22189900    0.10762600
Se    2.76926000   21.79839000   11.49513000      0.604281    0.04618600   -0.06597800
Se    2.19126000    1.94029000   15.02390000      0.171178   -0.27724700   -0.38410000
Se   22.14398000    7.71695000    8.31902000      0.101192    0.21715900   -0.79569300
Se    1.62035000   10.08270000   15.77935000     -2.508266    0.23051300    0.39553200
Se    3.42949000   15.12437000    7.03572000     -0.874712    0.37677700   -0.34746300
Se    2.77543000   13.44095000   16.26778000     -0.048551    0.35240000    0.00995300
Se    0.17179000   17.32925000    7.25159000      0.414859   -0.78041600    0.04519900
Se    3.61143000   19.68523000   13.89462000      0.073525    0.30626000    0.83791000
Se    6.58749000    0.25706000    2.66752000      0.169078   -0.52007000   -0.57787100
Se    7.45915000   21.94208000    0.55614000     -0.522963   -0.09428700    0.68284900
Se    9.99574000    7.22428000    6.66826000      0.140085   -0.14938900   -0.45667500
Se    4.45251000    4.48823000   14.68241000      0.836576   -0.64255200   -0.49549800
Se    5.06791000   12.37284000    4.70295000     -0.304209   -0.54896800    1.05557300
Se    9.12015000   13.59330000   14.55579000      0.518127    0.58542400    0.32410000
Se    7.12741000   17.98160000    3.58631000      0.253951    0.18191200    0.92187300
Se    7.93498000   17.68128000   14.31968000     -0.504277    0.27583500    0.95713100
Se   14.35571000    0.58541000    3.86996000     -0.224032   -0.62081200   -0.38453400
Se   13.79125000    0.43105000   16.26589000     -0.421835    0.63424700   -0.61292600
Se   13.34397000    9.79880000    4.69158000      0.161138    0.97755700    0.28231300
Se   10.76143000    5.52268000   13.99164000      1.086929    0.61972100   -0.05756400
Se   13.75060000   12.53721000    5.64652000      0.271259    0.56632700   -0.16049300
Se   13.36668000   14.67447000   15.89555000     -0.183897   -0.11570000   -1.03711800
Se   11.66140000   19.22153000    7.71511000     -0.255334   -0.20586000    0.67866200
Se   12.09448000   18.93218000    1.21018000     -0.593499    0.31020900   -0.26636900
Se   19.34450000    1.41118000    6.37429000      0.378434    0.67128700    0.13854900
Se   18.86364000    1.31561000   16.07411000      0.471656   -0.04683900    0.61495500
Se   19.82297000    5.19977000    7.37536000     -0.057262   -0.29432400   -0.53916400
Se   18.90059000    6.20528000   15.99345000      0.141513   -0.09340500   -0.48467200
Se   18.77602000   12.16771000    3.94041000      0.761473   -0.01221800    0.09985000
Se   17.09325000   14.70587000   13.60064000      0.198109   -0.08724300   -0.57451300
Se   16.60332000   18.37955000    4.37760000      0.285786    0.06981500    0.10313000
Se   16.73646000   20.40626000   16.11414000      0.194575    0.16179200    0.09241400
Se    2.02761000    7.99940000    4.90625000      0.062942   -0.00246800   -0.13681400
Se    2.83183000    6.61153000   13.75977000     -0.565344   -0.72054700    1.96281100
Se    1.62866000   11.50017000    4.94139000     -0.260068    0.13933200   -0.39459100
Se    3.74584000   10.00863000   15.11153000      2.015085    0.09291500   -0.55385900
Se    5.56407000   14.68562000    7.92474000      0.985117   -0.07930600    0.26363100
Se    3.56837000   18.08194000   17.35735000     -0.131300   -1.19798100   -0.91690300
Se    2.62105000   20.50936000    6.83923000      0.032124   -0.12567700    0.33031000
Se    5.35250000   22.32689000   14.90194000      0.669180   -0.99779900   -0.33708200
Se    9.06787000    1.07832000    5.71918000     -0.205924   -0.08460300   -0.23048400
Se    7.07149000    1.69997000   17.60913000      0.171198   -0.16537100    0.24837800
Se   13.59002000   11.49923000    9.84496000     -0.435133   -0.69440000   -0.42155900
Se   10.02528000   10.43747000   17.41917000      0.043107   -0.43074100   -0.61807700
Se    8.27252000   13.77906000    8.77193000      0.238133    0.39967900   -0.29346800
Se   11.98253000   16.90698000   13.56974000     -0.380793    0.65416900   -0.57897800
Se   11.05104000   20.68840000    4.56464000      0.377885   -0.09838200   -0.28494900
Se   10.58072000   17.48791000   17.36391000     -0.091012   -0.14078100   -0.49933000
Se   11.02870000    4.23806000    5.82866000     -0.034785    0.27453400   -0.05959600
Se   17.73527000    4.43941000   17.39721000     -0.329486   -0.13914400   -0.21946800
Se   17.13429000    7.33616000    5.42809000      1.151003    1.73593400    0.73452600
Se   16.39251000    8.37777000   12.48103000      0.751227   -0.63189800    0.75959000
Se   17.08499000   10.99498000    5.35964000      0.413668   -0.03947500    0.10838500
Se   13.88382000   18.54139000   16.88562000      0.130059   -0.98901100   -0.67506500
Se   15.78033000    2.37217000    4.71219000      0.736992    0.08808400   -0.28693800
Se   18.99488000    2.89755000   12.49409000      0.018594   -0.60395500    0.24598900
Se    0.32897000    3.39883000    5.60863000     -1.047039   -0.92122300    0.52778600
Se    1.09201000    4.31001000   16.41954000      0.218757    0.55699300   -0.97592400
Se   18.06536000   13.59592000    7.92944000      0.690301   -0.75388800    0.99860500
Se    0.20689000   13.13051000   13.56485000     -0.457340   -0.13185800   -0.38689900
Se   19.81067000   15.20543000    5.09535000      0.262467    0.54759100   -0.00547000
Se   19.32630000   19.35861000   13.82646000      0.226475    0.49714800   -0.58553700
Se   22.08031000   18.59004000    9.08244000     -1.250097    0.02693700    0.52639700
Se   20.66590000   20.25770000   16.20366000      0.085849    0.16155300    0.31401500
Se    3.50611000    0.71087000    5.15608000      0.591046    0.09615300    0.25928100
Se    7.15493000    1.83368000   14.41074000     -0.213965    0.43619100    0.16996500
Se    1.91282000    7.18613000    1.77385000      0.744732    0.06563100   -0.14563200
Se    5.39518000    7.39572000   11.39651000      0.956602    0.17975400    0.15625300
Se    1.54423000   14.15936000    1.71118000     -0.223392    0.37913800    0.74802000
Se    5.74035000   15.54159000   14.73132000     -0.350982   -0.26620600   -0.41706000
Se    4.67317000   17.82841000    2.65237000      0.183059    0.37912600   -0.27660000
Se    4.78045000   18.21032000   11.65444000     -0.195703   -0.46160500   -0.01913100
Se   10.20614000    1.53743000    3.41219000     -0.040076   -1.01151200   -0.11057100
Se   10.66382000    0.57576000   16.65912000      0.098254   -0.14747100   -0.16332500
Se    9.44447000    7.59452000    1.99555000      0.173684    0.04423400    0.63456800
Se    6.66165000    8.08260000   15.29937000      0.467258   -0.12279100   -0.15101100
Se   10.39719000   11.10922000    4.00517000     -1.055141    0.06223500    1.11156600
Se   10.23957000   11.38290000   11.74263000     -1.085372    0.04111200    0.30762900
Se    9.21222000   19.53754000    2.08365000      0.223046    0.20371100   -0.92626400
Se   16.37578000   17.87345000   12.78217000      0.275225    0.20591800   -0.76768400
Se   14.30213000    3.80469000    5.84030000     -0.826521    0.06511900    0.27171100
Se   16.17466000    0.90296000   16.06474000      0.544629   -0.27162500   -0.36191000
Se   16.73166000    5.47385000    4.38988000     -0.615741   -1.76474200   -1.03486800
Se   13.69990000    9.10569000   10.82547000     -0.738496   -0.04596300   -0.47982700
Se   15.76026000   11.03692000    2.68322000     -1.119494   -0.35534300    0.47001700
Se   16.83099000   13.42291000   16.90746000      0.545172    1.96585600   -1.43402800
Se   16.05750000   16.13515000    3.31485000      0.860132   -0.08992400   -0.40583300
Se   14.85517000   21.98894000   12.51507000     -0.341794   -0.28879400    0.13639500
Se    0.00858000   20.34079000    6.05461000      0.473925    1.16857900    1.88214000
Se   20.43858000    1.02358000   13.23578000     -0.358000   -0.51889600    0.36599100
Se   21.28044000    6.43087000    4.41364000     -0.148190   -0.06082800    0.24451000
Se   19.78048000    8.22828000   14.13923000      0.093469   -0.62837900    0.03084200
Se    0.57957000   14.22487000    6.04172000     -0.126404    0.28234300   -0.56351800
Se    1.47096000   14.96956000   14.73994000     -0.193758   -0.49892200    0.21985400
Se   20.83351000   17.60972000    4.46565000      0.279747   -0.36479100   -0.19191100
Se   21.44996000   21.36575000   10.86947000      0.312423    0.69881200   -1.75210400
Se    2.60760000    4.20847000    3.47618000     -0.088408    0.77474700   -0.16172000
Se    2.08714000    3.75873000   11.65869000     -0.313406   -0.75762900   -0.17472300
Se   22.06711000   11.20223000    1.58436000     -0.609166   -0.36622800   -0.04715900
Se    1.47356000    9.35935000   11.87756000     -0.131711    0.21504200   -0.20941400
Se    0.02398000   16.73064000   18.17500000      0.703879    1.21451300   -0.07162800
Se    4.03389000   16.25908000   12.85795000     -0.130930   -0.88575800    0.58710900
Se    2.52476000   20.13335000    2.93049000     -0.367368    0.26689600   -0.38905400
Se    5.69328000   19.95971000   15.55953000     -1.046400    0.19229700   -0.51064100
Se    7.99203000    3.64472000    4.60800000     -0.965672    1.00256300   -0.29948400
Se    9.70756000    3.40530000   14.17749000     -0.619171   -0.31681000   -0.08702800
Se    4.61371000    6.19173000    5.22794000      0.778397   -0.36847700   -0.27489100
Se    8.12203000   11.19247000   16.13783000      0.574379   -0.61178700   -0.41664800
Se    6.55074000   14.38223000    0.90735000      0.763176    0.51290400   -0.20245900
Se   11.38260000   14.43967000   10.53239000      0.307384   -0.64647700    0.44139600
Se    6.61084000   20.69910000    6.17708000     -0.151368    0.07270700    1.20939600
Se   10.70793000   20.88274000   14.04843000      0.235974    0.08804800    0.57599400
Se   12.56592000    3.78646000    2.04066000      0.217333   -0.34507800   -0.20845100
Se   12.84950000    6.15313000   11.02167000     -0.286099    0.82817700    0.21131900
Se   13.58292000    7.63067000    2.78523000      0.598896   -0.08805100   -0.23180300
Se   11.41406000    9.53380000   14.35127000     -0.488353   -0.55763700   -0.53198300
Se    7.90210000   14.23936000    4.87151000      0.660855   -0.39564100   -0.32576300
Se   15.34677000   14.27846000    9.88345000      0.402954   -0.21902000    0.35303700
Se   14.42280000   20.18415000    3.42394000      0.736711   -0.11568500   -0.57590500
Se   14.03963000   19.81465000   13.34396000      0.985829    0.16312000    0.62417300
Se   18.67194000    6.27605000    1.54402000     -0.654932    0.31016300   -0.58541700
Se   14.95814000    5.57890000   14.28974000      0.302241    0.89590300    0.46125100
Se   19.21676000    8.73257000    3.15179000      1.081198   -0.61780300    1.64944000
Se   20.13009000   14.05284000   11.24090000     -0.363840    0.52336700   -0.55738900
Se   21.30131000   15.08304000    1.99187000     -0.391036   -0.63367700    0.29892000
Se   17.34073000   17.04877000   10.25907000     -0.914583   -0.75498200    0.10267200
Se   17.88676000    0.48687000    3.82678000     -0.566674    0.53205800   -0.61384900
Se   16.06636000    1.19877000   10.51660000      0.388737   -0.38776200    0.29380800
