384
23.23808000 23.23808000 19.51320000
Ge    5.79480000    5.70071000    9.94207000      1.067338    0.93516500   -1.22461500
Ge    5.43176000    6.14127000   19.44172000     -0.301665   -1.09637500   -0.04607900
Ge    5.86608000   11.94928000    9.89294000      0.965121   -0.38181800    0.15038900
Ge    5.58317000   11.43340000    0.13532000      1.568032    0.22574100   -0.88226300
Ge    5.95378000   17.60002000    9.82090000      0.826866    0.55382100   -0.53763900
Ge    5.32150000   17.15086000    0.14470000      0.301787    0.63792900   -0.12958900
Ge    5.83019000   22.86885000   10.09130000      1.051724    1.22803900    0.61821400
Ge    5.62893000    0.07634000    0.04248000      0.729035    0.57525600   -0.00083200
Ge   11.52582000    6.03439000    9.61064000      0.280548    0.18566000    1.47500300
Ge   11.76157000    5.96100000   19.37148000     -0.422442   -0.24342700   -0.36502600
Ge   11.61070000   12.15191000    9.96731000      0.065058    0.21669300    0.06223100
Ge   11.93577000   11.51432000   19.13583000      1.089933    0.22149100   -0.16893200
Ge   11.27399000   17.70674000    9.88147000     -0.165670    0.37339300   -1.43179100
Ge   12.17660000   17.63201000   19.48444000     -0.815689    0.45381500   -0.03376400
Ge   11.60964000   22.87441000    9.81746000      1.115913    0.24416500    0.07024300
Ge   11.98061000    0.26674000    0.07775000     -0.579801   -0.49338500   -1.02319500
Ge   17.25788000    5.50084000    9.53021000      0.222189    0.13722200   -0.06553500
Ge   17.41569000    5.52286000    0.09437000     -1.035560    0.29410300   -0.65667300
Ge   17.41790000   11.29706000    9.62139000      0.024576   -0.37567700    0.35102800
Ge   17.24154000   11.54977000   19.11345000      0.939511   -0.37450300    1.01885700
Ge   17.45372000   17.32992000    9.50874000     -0.495663   -0.27954200    0.50091400
Ge   17.39329000   17.56861000    0.43236000     -0.286827    0.16754900    0.53329500
Ge   17.52617000    0.12985000    9.39232000     -0.490344   -0.35920900    0.67071300
Ge   17.87945000    0.10275000    0.11866000      0.318763   -1.22468400    0.47123400
Ge   22.79242000    5.80810000    9.91135000      0.379885   -0.13670100   -0.86205500
Ge   23.14560000    5.75873000   19.29135000      0.802589   -0.04559400    1.59601200
Ge    0.03550000   11.66749000    9.68453000      0.564584    1.09861400   -0.05463300
Ge   23.09541000   11.54622000   19.42804000      0.763368   -0.03198800   -0.54929100
Ge    0.46888000   17.62987000    9.65679000     -1.390215    0.00086500   -0.97182500
Ge    0.07348000   17.53362000    0.24233000      0.202660    0.95734900    0.01453500
Ge    0.02409000    0.07892000    9.74118000     -0.446245    0.69569900    0.39915600
Ge    0.07332000    0.15019000    0.12646000      0.550640   -0.03476600    0.85760900
Ge    2.60974000    5.81259000    7.53346000     -0.091679   -1.00512400   -0.16613800
Ge    2.67362000    5.93771000   16.81499000     -0.525885    0.52650800   -0.35545000
Ge    3.28260000   11.63328000    7.67934000     -0.145786    0.10545600   -1.13513200
Ge    2.67195000   11.59942000   17.17360000      0.321033    0.48342600   -0.57160200
Ge    3.38952000   17.51979000    7.33528000      0.054393   -0.19259300    0.11628600
Ge    2.64995000   17.27248000   16.92035000      1.500285   -0.28668900   -0.13906200
Ge    3.23361000    0.09426000    7.64158000     -0.215809   -1.07356000   -1.22505200
Ge    2.84527000   23.19204000   17.17684000     -0.250004   -0.54871200   -0.80351600
Ge    8.77657000    5.63833000    6.98774000     -0.084342   -0.07712600    0.97873300
Ge    8.70939000    6.04363000   17.17445000     -1.577660   -0.53793800   -0.95555000
Ge    8.79929000   11.84540000    7.49596000      0.183253    0.29959600   -0.85063200
Ge    9.05177000   11.43389000   17.03936000     -1.548097    0.70315100    0.11271200
Ge    8.82477000   17.10194000    7.10384000     -0.298951    0.23665800   -0.32067000
Ge    8.48571000   17.15693000   17.68802000      0.257432    1.18449400   -0.37879900
Ge    8.86172000    0.12383000    7.39151000     -1.172072   -1.62306500    0.21547700
Ge    8.89527000    0.19207000   17.27264000     -0.004533   -0.34765600   -0.19885600
Ge   14.03889000    6.17728000    7.43588000      1.332717   -0.84994700   -0.62731800
Ge   14.72477000    5.63036000   16.92971000     -0.554113   -0.42703100   -0.84934500
Ge   14.53906000   11.56394000    7.26559000      0.514121    0.67033500   -0.51141600
Ge   14.44541000   11.39659000   16.65716000     -0.006043    0.32391400   -0.28416500
Ge   14.30876000   17.40141000    7.16261000     -0.017472   -0.14434500    0.37516700
Ge   14.94702000   17.39979000   17.15301000     -0.805168    0.50006600   -0.17508100
Ge   14.50172000   23.05372000    7.10250000     -0.372355   -0.39821500    0.36429500
Ge   14.99407000   23.23004000   17.40104000     -0.411021    0.71957800    0.75736700
Ge   20.21565000    5.91333000    7.13307000      0.287538   -0.60161400    0.08711600
Ge   20.66859000    5.77079000   16.92942000     -1.437673   -0.05559500   -0.04182200
Ge   20.49975000   11.31808000    7.41482000     -0.547535    2.31360500   -1.12583500
Ge   20.20277000   11.59006000   16.64123000      0.863908   -0.94931200    1.14747000
Ge   20.61086000   17.66993000    6.91497000     -0.570324    0.08209400    1.21059400
Ge   20.65188000   17.73721000   17.47543000     -0.855091   -0.49861700   -0.73826200
Ge   20.71973000    0.28315000    7.23665000      0.216559    0.48584700    0.52906500
Ge   20.57335000   23.06422000   16.86455000      0.738665   -0.34386000    0.83703400
Ge    3.17233000    2.96089000    4.93533000     -0.128038   -0.22047900    0.42254200
Ge    2.61590000    2.74378000   14.54440000      0.244905    0.05855600    0.28028700
Ge    2.80805000    8.87359000    5.21244000      1.149237   -1.13409600   -0.54230000
Ge    2.65116000    8.98227000   14.49003000     -0.027499   -1.07719700   -0.44971400
Ge    3.00933000   14.26832000    5.13376000     -0.347224   -0.19125700   -0.16036600
Ge    2.41379000   14.27578000   14.30793000      1.110770    1.16206900    0.85253600
Ge    3.11776000   20.61015000    5.13276000     -0.875463   -0.04185500    0.70859700
Ge    2.79915000   20.16387000   14.65298000      0.764993   -1.03102200    0.99261700
Ge    8.54098000    2.54501000    4.66764000      0.059493    1.54670500    0.77694500
Ge    8.37983000    2.90589000   14.82520000      1.677578    0.13936500   -0.21225300
Ge    8.69719000    8.89163000    4.89689000      1.221480    0.69505100   -0.38863600
Ge    8.86293000    9.00988000   14.47649000     -1.005480   -0.79723800    0.51602200
Ge    8.98772000   14.34836000    4.49008000      0.043924    0.02278000   -0.33963800
Ge    8.59047000   14.47864000   14.89282000     -0.391399   -0.79113000   -0.48772400
Ge    8.80809000   20.23953000    4.89551000     -0.247251    0.40310700    0.03349400
Ge    9.03402000   20.07867000   15.09357000     -1.217247    0.58212000    0.78747200
Ge   14.23393000    2.80738000    4.93716000      0.429753   -0.01666200   -0.31860800
Ge   14.68845000    2.55272000   14.74001000     -0.266848    1.33048000    0.21739700
Ge   14.26706000    8.79035000    4.80405000      0.916297   -0.79490100    0.39698100
Ge   14.88277000    8.54016000   14.44244000     -0.835869    1.85584300    1.52403600
Ge   14.40787000   14.34486000    4.78114000     -0.997854   -1.00965900   -0.40724400
Ge   14.65932000   14.93667000   14.63678000     -0.989069   -0.43407700    0.44463000
Ge   14.43127000   20.15926000    4.66685000      0.225604    0.01596800    0.25184300
Ge   14.51671000   20.60279000   14.96065000      0.031990   -0.37322500   -0.48137400
Ge   20.30308000    2.94810000    4.80504000     -1.067830    0.42241500    0.01301100
Ge   20.17303000    2.83372000   14.47538000      0.015923   -1.56978800    0.31325100
Ge   20.30364000    8.73462000    4.77397000     -0.340417    0.66534900   -0.05988000
Ge   20.27214000    8.51849000   14.37176000      0.194060    0.26225600    0.44012900
Ge   20.14441000   14.53302000    4.80376000     -0.407409   -0.11266600    0.76172100
Ge   20.07666000   14.99730000   14.73427000      0.577463    0.04692000    0.37409100
Ge   20.68172000   20.74096000    5.02710000     -0.964380    0.35878600   -1.00577000
Ge   20.34725000   20.09449000   14.38838000     -0.787415   -0.78564600    0.39820300
Ge    5.67580000    3.09382000    2.52359000     -0.234264    0.64513300   -0.90681000
Ge    5.98638000    2.78361000   12.32576000     -0.099832   -0.92536900    0.30582700
Ge    5.84828000    8.66337000    2.62036000      0.434232   -0.51418800   -0.60763800
Ge    5.80189000    8.70938000   12.19989000     -0.322018   -0.28243600   -0.07748800
Ge    5.77596000   14.19818000    2.35763000     -0.274818    0.97690800    0.38422400
Ge    5.82682000   14.86749000   12.41354000      0.783230   -0.91680100    0.39833200
Ge    5.71386000   20.39678000    2.51442000     -1.307859   -0.39177000   -0.74803900
Ge    6.13652000   20.05036000   12.63091000     -0.356529    0.13537300    0.28532700
Ge   11.71212000    3.08275000    2.36223000     -0.377161   -0.73678500   -0.03835700
Ge   11.61487000    3.42267000   12.36756000     -0.778787   -1.53014200   -0.29823100
Ge   11.65232000    8.70087000    2.31960000      2.296198    1.49448300   -1.18387500
Ge   11.79630000    8.89475000   12.25357000      0.356802   -0.30342500   -0.74030200
Ge   11.91220000   14.34231000    2.05710000     -0.668038   -0.81700000   -0.16447600
Ge   11.48313000   15.24632000   12.41851000      0.252736   -1.05108300    0.43269500
Ge   11.66345000   20.67058000    2.31973000     -0.052983   -0.92140800   -0.09229300
Ge   11.70100000   20.22888000   12.52693000     -0.528734    1.31273800    0.21256600
Ge   17.24348000    2.63494000    2.56580000      0.092382    0.95295300    0.21224700
Ge   17.26742000    2.65771000   12.14570000      0.031167   -0.65965000   -0.20519800
Ge   17.19764000    8.64312000    2.38032000      0.552661   -0.08428600    0.47367000
Ge   17.45286000    8.60466000   11.94517000      0.321014    0.29734800   -0.95105300
Ge   16.98566000   14.06739000    2.28098000      0.355299    0.40416400    0.93494000
Ge   17.04928000   14.34689000   12.09569000      1.015670    0.15448100    0.00421400
Ge   17.73516000   20.52039000    2.69916000      0.127551   -0.22628800    0.20901700
Ge   17.26311000   20.30913000   12.03197000     -0.421898    0.49511300    0.19222000
Ge    0.26414000    3.23912000    2.54594000     -1.386536   -1.17613200   -0.93471100
Ge   23.15123000    2.80395000   12.31012000      0.395571   -0.57679600   -1.08100200
Ge   23.05998000    8.75591000    2.57341000      0.702009    0.58717100   -1.02557900
Ge   22.97088000    8.65068000   11.98031000      0.166393   -1.09214500    0.19164300
Ge   23.21406000   14.29294000    2.41683000     -0.640308   -0.65183600    0.01531200
Ge   23.02266000   14.72073000   11.87312000     -0.448185    0.55386400    0.29480800
Ge    0.16387000   20.35171000    2.62550000      1.234993    1.57112600   -0.16738300
Ge    0.16643000   20.41108000   12.02276000     -0.081183   -0.07406000    0.46077000
Se    1.63984000    1.75376000    1.27902000     -0.376962   -0.48776800   -0.40753700
Se    1.52822000    1.36802000   11.10735000     -0.950941    0.15300800    0.33638600
Se    1.28381000    7.57825000    1.00451000     -0.506987   -0.54965000    0.14734000
Se    1.29336000    7.05645000   10.86689000     -0.564919    0.92197000    0.57016600
Se    1.50851000   12.87047000    1.12530000     -0.617732    0.35219200   -0.02276200
Se    1.46561000   13.53109000   10.75577000     -0.600615   -1.38995300   -0.20582000
Se    1.61885000   18.90283000    1.51580000      0.490660   -0.49266200   -0.36451400
Se    1.81569000   18.94916000   11.09009000     -0.024338    0.00746600   -0.14002800
Se    7.01791000    1.87664000    0.96255000     -0.125385   -0.32371900    0.20420300
Se    7.40042000    0.74232000   11.72828000     -1.027646    0.95491300   -0.60149300
Se    7.22645000    7.12804000    1.06125000     -0.497546    1.04263500    1.03433800
Se    7.46173000    7.13012000   11.24464000     -1.055964   -0.10719400   -0.49535400
Se    7.28921000   12.58297000    1.36736000     -0.787298    0.47690100   -0.28762600
Se    7.39838000   13.23967000   11.42461000     -1.041721    0.03435900   -0.29087900
Se    6.91459000   18.86985000    1.21575000     -0.034057   -1.17364700   -0.61324100
Se    7.59951000   18.93415000   11.05590000     -0.233313   -0.14713300    0.25264000
Se   13.39522000    1.40697000    1.52502000     -0.373422    0.80298900    0.05208200
Se   12.85543000    1.41528000   11.03303000     -0.190127    0.30278500    0.13602600
Se   13.32233000    7.14009000    1.10129000     -0.321944    0.94437100    0.78028300
Se   13.18179000    7.21865000   11.12817000     -0.947260   -0.07370500   -0.67291800
Se   13.49643000   12.97580000    0.75676000     -0.741086    0.15026600    0.22638800
Se   12.95105000   13.82024000   11.07877000      0.082692   -0.35117900    0.15577400
Se   13.43584000   19.31802000    1.33266000     -0.711600   -0.49436600   -0.37946500
Se   12.85812000   19.04051000   10.92887000      1.434090   -0.54529700   -0.12249900
Se   19.15690000    1.51160000    1.59354000     -0.479556    0.19183400   -0.37632900
Se   18.97642000    1.36254000   10.99262000     -1.001914   -0.09852300   -0.44041100
Se   18.67191000    7.13475000    1.20949000      0.521994    0.46728500    0.39143300
Se   18.69419000    6.82112000   10.93535000      0.617645    0.00991100   -0.03631700
Se   18.63541000   13.22166000    0.89639000     -0.006084   -0.95466600   -0.71316000
Se   18.66871000   12.61780000   11.32012000     -0.381075    0.24536800   -0.46913200
Se   19.10913000   18.64818000    1.83900000     -0.634842    0.43772100   -0.45177500
Se   18.76798000   18.84799000   10.98924000      0.072643   -0.75643000   -0.69357600
Se    4.06239000    4.78881000    1.63408000      0.818827   -0.22937100   -0.71358700
Se    4.45810000    4.15444000   10.97091000     -0.409798   -0.85224300    0.74181200
Se    4.27382000    9.87493000    1.16985000     -0.504265   -0.64365400    0.54895200
Se    4.37309000   10.21101000   10.75658000      0.716584   -0.15968900    0.51444700
Se    3.85814000   15.82167000    1.56358000      1.208751   -0.34236700   -0.14438500
Se    4.52525000   16.33657000   11.17050000     -0.921639    0.01935700   -0.35966400
Se    4.17788000   21.71176000    0.88952000      0.399395   -0.44492200    1.16837800
Se    4.58126000   21.26956000   11.19653000     -0.656996   -0.37548100    0.43602100
Se   10.25778000    4.50229000    1.02289000     -0.078863   -0.41110200    0.22261100
Se    9.99215000    4.71512000   10.87479000      0.628675   -0.55444500    0.70840200
Se   10.46706000   10.14190000    0.75322000     -0.773008   -0.50087000    0.99132300
Se   10.36231000   10.50250000   11.21511000      0.038039   -0.03427000   -0.21919700
Se   10.58298000   16.13963000    1.05446000     -0.054629   -0.30592100    0.11485600
Se    9.87339000   16.19731000   10.90818000     -0.482949   -0.39616300    0.92330000
Se   10.32405000   22.26277000    1.24455000     -0.379973   -0.20256500   -0.38711400
Se   10.15576000   21.43955000   10.96868000     -0.494896   -0.19012900    0.68699700
Se   15.72229000    4.22560000    1.33580000      1.173167   -0.06899800   -0.24231600
Se   15.78687000    4.05053000   10.72846000     -0.069396   -0.37972100    0.34600000
Se   15.84200000   10.10558000    1.13340000     -0.012465    0.49137900   -0.60911400
Se   15.87723000    9.58821000   10.48797000      0.468040    0.97255900    0.01253200
Se   15.77136000   15.97904000    1.60868000      0.061398    0.78496600   -0.75404500
Se   15.72479000   15.60759000   10.58564000      0.793600    0.97947700   -0.24835300
Se   16.24587000   21.78969000    1.25680000      0.686758    0.32346400   -0.35092000
Se   15.86562000   21.70189000   10.65211000      1.132612    0.67154100   -0.41139900
Se   21.75144000    4.25699000    1.20087000      0.668092    0.55708800   -0.26463400
Se   21.59927000    4.08069000   10.96684000     -0.702917   -0.21256500    0.34324300
Se   21.65998000   10.51893000    1.42953000     -0.142655   -1.03049800    0.41660700
Se   21.63373000   10.36571000   10.90779000      0.122475   -0.08398500   -0.07738600
Se   21.80399000   16.07460000    1.26114000     -0.177734   -0.77847300    0.59421400
Se   21.82829000   16.18976000   10.38419000      0.457276    0.34357100    0.08453200
Se   22.01033000   21.99271000    1.61580000     -0.011542    0.26781600   -0.41729000
Se   21.76047000   21.62632000   10.80298000      0.654436    0.58871300   -0.32012900
Se    0.93473000    4.35899000    8.57211000      0.591151   -0.02852700   -0.37684100
Se    1.48309000    4.35623000   18.16216000     -0.396646    0.08777200    0.05501400
Se    1.89449000   10.15073000    8.95426000     -0.699272    0.27803000    0.15837700
Se    1.23082000    9.95993000   17.99547000     -0.623297    0.60921600    0.93594200
Se    1.79241000   16.03391000    8.50319000      0.603907    0.27644700   -0.19100200
Se    1.18901000   16.06115000   18.31022000      0.126835   -0.91847100   -0.03107000
Se    1.58929000   21.91879000    8.71608000      0.390367   -0.86311400   -0.70939200
Se    1.45127000   21.79889000   18.49494000     -0.333603   -0.03176000    0.12207100
Se    6.87497000    4.28144000    8.17909000      0.910079    1.05250500    0.27702100
Se    6.84769000    4.61656000   18.14641000      0.220101    0.60993700   -0.11540300
Se    7.42817000   10.33828000    8.62833000     -0.982407    0.28117000    0.54494300
Se    7.46782000   10.20580000   18.42129000     -0.025513   -0.50285500   -0.09259200
Se    7.25114000   15.83626000    8.56888000     -0.115067    0.65683700   -0.17996900
Se    6.81422000   15.60842000   18.45270000      0.180997    0.32164800    0.37246700
Se    7.46953000   21.76979000    8.78291000      0.423517    0.15235300   -0.72649700
Se    7.39230000   22.06250000   18.56048000      0.009595   -0.46145700   -0.00504000
Se   13.03806000    4.42794000    8.73466000      0.025999    0.29717000   -0.37078200
Se   13.12481000    4.35253000   18.16427000     -0.312369   -0.15844800   -0.10798000
Se   12.98980000   10.62545000    8.66550000     -1.301530   -1.23048600    1.18671000
Se   12.99808000    9.85155000   17.73023000      0.224008    0.34283500    0.34404200
Se   12.75684000   16.21981000    8.71876000      0.543303    0.13016100   -0.65817300
Se   13.32789000   15.93797000   18.17716000     -0.170025    0.50857200    0.25147500
Se   13.19265000   21.43817000    8.51138000     -0.006002    1.11489900    0.10336000
Se   13.38548000   21.79914000   18.45237000     -0.173088    0.61478100    0.36811600
Se   18.86697000    4.24218000    8.25741000      0.074421    0.11374600    0.14523100
Se   18.97739000    4.36872000   18.21598000      0.699283   -0.30509300   -0.21676400
Se   19.03588000    9.84822000    8.35698000     -1.240369   -0.24377700    1.12476800
Se   18.65887000   10.05752000   17.84371000      0.458150    0.29002200    0.16873200
Se   18.92914000   16.10088000    8.12408000      0.724438    0.12154400   -0.11056100
Se   18.70883000   16.27145000   18.54234000      1.282371   -0.13246900   -0.58117500
Se   19.30901000   21.98052000    8.39053000     -0.555309   -0.06920500    0.49983800
Se   19.25238000   21.75495000   18.32965000     -0.675179   -0.27617300    0.38581300
Se    4.26453000    1.30357000    9.27120000      1.105222    0.62157400    0.46667700
Se    4.20974000    1.48273000   18.26101000      0.264709    0.59668600   -0.01195300
Se    3.85757000    7.04954000    9.10545000      0.919573    0.35211100    0.15796600
Se    3.93241000    7.53937000   18.08224000      0.323982   -0.17496700    0.27395200
Se    4.70078000   13.47342000    8.40321000     -0.050731   -0.67224600    0.30128600
Se    4.42929000   12.96740000   18.26517000     -0.519889    0.01598900   -0.08199100
Se    4.54067000   19.24613000    8.66219000      0.238435   -1.41686800   -0.06246500
Se    4.29897000   18.70198000   18.01283000     -0.153311   -0.47945100    0.52220800
Se   10.58480000    1.22221000    8.37159000      0.345083    1.20377400    0.71527600
Se   10.47814000    1.72008000   18.21598000      0.218440   -0.34108800    0.27967200
Se   10.04346000    7.40182000    8.42791000     -0.416052   -0.51669200   -0.72728100
Se    9.90615000    7.46213000   18.71021000      0.414672   -0.23491000   -0.54538300
Se    9.71307000   13.43882000    9.11608000      0.521434   -0.41384300   -0.71784900
Se   10.57163000   13.01156000   17.94221000     -0.445062    0.55692800    0.19261500
Se    9.65436000   18.90838000    8.44249000      0.688775   -0.27733800    0.15665700
Se   10.13786000   18.95068000   18.55362000      0.372378   -1.45837400    0.12569900
Se   15.79989000    1.57294000    8.08414000      0.660487   -0.71423300    0.47491800
Se   16.62538000    1.57787000   18.38353000     -1.146484    0.27337500   -0.47488800
Se   16.20917000    7.13922000    8.13010000     -0.648244   -0.22518700    0.01492400
Se   16.02140000    7.04396000   18.09871000      1.232042    0.64100700    1.46951200
Se   15.95724000   12.86948000    8.62248000      0.430324    0.60202400   -0.12224200
Se   15.66517000   12.89165000   18.06342000      0.149033    0.36218800   -0.17477500
Se   16.13474000   18.76593000    8.13822000     -0.714319    0.13607200   -0.13806100
Se   15.98995000   19.08884000   18.59584000      0.009721   -0.44475700    0.02713400
Se   22.12285000    1.88833000    8.49155000     -0.462215   -1.45309600   -0.23632200
Se   21.66233000    1.34094000   18.47569000     -0.177474    0.45449300   -0.62507400
Se   21.58687000    7.35760000    8.52481000     -0.173128   -0.10222700   -0.04901000
Se   21.93863000    7.37222000   18.16300000     -0.557274    0.06957300   -0.40179200
Se   21.78917000   13.19553000    8.30170000      0.095149   -1.38544200    0.53250500
Se   21.57502000   12.97661000   18.18399000      0.034107   -0.27240900   -0.08153200
Se   22.20697000   19.11166000    8.09598000     -0.010622   -0.74130300    0.48531600
Se   22.25540000   19.30847000   18.55631000     -0.973672   -0.72784300   -0.20519400
Se    1.86087000    1.41245000    6.19946000     -0.558913    0.06999800    0.11573700
Se    1.15063000    1.11814000   15.90195000      0.846402    0.72425200   -0.38251100
Se    1.29273000    7.35254000    6.29565000      0.149015    0.21901200   -0.05711900
Se    0.97435000    7.62417000   15.68051000      1.699610   -0.65997000    0.11545000
Se    1.42722000   12.66042000    6.47954000      1.456670    0.91278800   -0.40281800
Se    1.18310000   13.07001000   15.93883000     -0.367546   -0.23289200   -0.04170400
Se    1.77233000   18.84999000    6.28038000     -0.018316    0.78026700   -0.51749800
Se    1.22177000   18.59039000   15.65911000     -0.339956    0.87128400   -0.59868600
Se    7.20972000    1.24125000    6.17764000     -0.493914    0.34631500   -0.34856700
Se    7.11465000    1.40149000   16.19498000      0.144101    0.07264200   -0.31404800
Se    7.36339000    7.34136000    5.93436000     -0.444979   -0.90745200    0.34335600
Se    7.26184000    7.31535000   15.30675000      1.535269   -0.17412400    1.29820900
Se    7.40494000   13.06845000    5.79095000      0.515628    0.00176500    0.60802000
Se    7.25747000   12.74464000   15.85179000      0.728943   -0.08257600    0.30201100
Se    7.34302000   18.63475000    5.79765000      0.004821   -0.56746200    0.40027100
Se    7.29676000   19.01345000   16.51819000      0.724660   -0.34877700   -0.29154900
Se   12.77259000    1.11788000    5.91381000      0.733884    0.46686700    0.12432000
Se   13.34028000    1.08551000   16.11297000      0.025077    0.83254000   -0.24320600
Se   12.76887000    7.89486000    6.39531000     -0.688398   -0.65187300    0.27461500
Se   13.35363000    7.32312000   15.81030000     -0.090743   -0.32695300   -0.15330300
Se   12.89756000   12.77402000    6.09551000      0.472152    0.90578800   -0.58745600
Se   13.13961000   13.37350000   15.92579000      0.426977    0.14155000   -0.27951000
Se   12.81100000   18.79685000    5.82989000      0.502644   -0.32732000    0.05554400
Se   13.02455000   18.92030000   15.94731000      1.816940    0.00527500    0.56889200
Se   18.93809000    1.36663000    6.12657000      0.521861    0.59141800   -0.52314300
Se   18.98348000    1.08681000   15.81210000     -0.616894    1.10560800   -0.83744500
Se   18.72922000    7.16133000    5.69440000      0.240191    0.05518600    0.31931400
Se   19.00463000    7.25734000   15.89351000     -0.128364   -0.53325800    0.22014200
Se   18.80960000   12.75404000    6.04257000      1.409235    0.17305500    0.26489300
Se   18.73887000   13.17423000   15.85952000     -0.261301    1.06197300   -0.71930300
Se   19.08121000   19.27384000    5.95390000      0.162359   -0.37603100    0.34830600
Se   18.87666000   18.72617000   15.99470000      1.761573    0.14782300   -0.17284200
Se    4.35816000    4.49562000    6.33994000     -0.263889    0.07704100    0.07100500
Se    4.10927000    4.33669000   15.75417000     -0.379871   -0.26553100   -0.26875400
Se    4.65544000   10.14999000    6.08151000     -0.985341    0.23464800    0.94044000
Se    4.19660000   10.36659000   15.79322000     -0.234847   -0.24554000   -0.40677300
Se    4.70395000   15.90954000    5.95776000     -0.877481   -0.16419300    0.13645900
Se    4.06876000   15.71153000   15.63836000     -1.119167   -0.10219200    0.19404800
Se    4.79412000   21.84758000    6.25693000     -0.684403    0.60153800    0.65196300
Se    4.21607000   21.38521000   16.21203000     -0.287999    0.46978300   -0.19588100
Se   10.20538000    3.92192000    5.95917000     -0.740017    0.43031900    0.04947600
Se   10.07024000    4.27411000   16.27384000     -0.640616   -0.20476800   -0.65190700
Se   10.26584000   10.40393000    6.04873000     -0.386939    0.04365900    0.33981500
Se   10.51138000   10.20407000   15.66183000     -0.125374   -0.27452000   -0.17022900
Se   10.46585000   15.89775000    5.66007000     -0.686170    0.09511800    0.47355400
Se    9.88760000   15.92350000   16.14687000      0.885609    0.54549600    0.77379000
Se   10.18206000   21.77699000    6.16157000     -0.057920   -0.25331900   -0.33994800
Se   10.36422000   21.85264000   16.07327000     -0.136579    0.25920800    0.21128400
Se   15.45985000    4.67095000    5.91960000     -0.176835    0.03165800    0.59520100
Se   16.25676000    4.44125000   15.47656000     -0.904224   -0.77463400    0.30216300
Se   15.85073000    9.98001000    6.08193000      0.705207    0.17277100    0.16092600
Se   16.27063000   10.27435000   15.60043000     -0.733143   -0.64543900   -0.45814200
Se   15.72652000   15.62052000    6.15348000      0.289520    1.07003800    0.71043200
Se   16.43930000   16.16544000   15.63965000     -0.422867    0.50473700    0.54774900
Se   15.97063000   21.44051000    6.04610000     -0.538075    0.33899900    0.02065300
Se   16.36834000   21.85427000   16.21186000      0.045079   -1.33817400   -0.99314400
Se   21.78218000    4.28090000    6.06360000     -0.304639    0.72311600    0.34039800
Se   21.80902000    3.99971000   15.66055000      0.382122    0.80647400    0.65673400
Se   21.95351000    9.94893000    6.19979000     -0.191287   -0.46974500   -0.62491500
Se   21.77503000   10.13850000   15.41499000     -0.573569    0.41851800    0.15388400
Se   21.92520000   16.13294000    5.76970000     -0.602062   -0.75400600   -0.42422000
Se   21.98027000   16.05252000   16.05758000     -1.414537    0.32531900    0.23386800
Se   22.28522000   22.11645000    6.08140000     -0.036913    0.06067800    0.04245800
Se   21.87061000   21.44353000   15.60893000      0.489536    0.34452100    0.24515500
Se    4.40053000    1.41090000    3.61870000      0.229539    0.25202100    0.18355800
Se    4.29303000    1.27570000   13.59471000      0.403741    0.82692800   -0.21700900
Se    4.41473000    7.18070000    3.87045000     -0.458780    1.24413100    0.33079000
Se    3.88607000    7.27995000   12.97163000      0.278226    1.23594800    0.62258100
Se    4.67245000   12.79720000    4.00951000     -0.525687    0.36243000   -0.13762600
Se    4.26307000   13.21446000   13.22324000      0.116901   -0.29201700   -0.14799000
Se    4.15305000   19.07352000    3.82484000      1.092025   -0.63096600   -0.91216700
Se    4.41714000   18.61188000   13.77894000      0.422013    0.49696200   -0.30860000
Se   10.30872000    1.34240000    3.77048000      0.608540    0.34069600   -0.91853500
Se   10.17439000    1.53742000   13.37857000     -0.219909    1.66047700    0.57450400
Se   10.19795000    7.47900000    3.42898000     -1.838341   -1.50080600    1.34543000
Se   10.07330000    7.53203000   13.12508000      0.072205   -0.49753400   -0.06504300
Se   10.73690000   12.73752000    3.59009000     -0.693012    1.21238700   -0.46260600
Se   10.20179000   13.38297000   13.50371000      0.307090    0.58633500   -0.28474000
Se   10.03167000   19.14378000    3.25457000      0.812740   -0.68764800   -0.24809900
Se   10.39384000   18.63038000   13.76657000     -0.159696    0.16632300   -0.09699300
Se   15.64181000    1.19858000    3.64029000      0.322997    0.41413100    0.45026500
Se   16.01029000    0.98859000   13.64741000      0.739764    0.61341300   -1.10448200
Se   15.69834000    7.11448000    3.77802000      0.376212    0.82804200   -0.37651600
Se   15.98053000    7.23716000   13.02648000      0.187095   -2.51536800   -0.05612100
Se   15.66242000   12.60306000    3.62879000     -0.019379    0.33964400   -0.04285200
Se   15.56496000   13.11816000   13.47498000      0.343250   -0.04705200   -0.35011400
Se   16.25763000   18.82719000    3.73457000     -0.316977    0.62383500   -0.08346600
Se   15.55541000   19.13430000   13.22159000     -0.252565   -0.06452100    0.38706400
Se   21.93590000    1.67491000    3.62138000      0.146125   -0.08543700   -0.03460700
Se   21.86276000    1.25087000   13.57173000     -0.434064    0.57609400   -0.06929200
Se   21.66994000    7.21887000    3.59171000     -0.086455   -0.65962100    0.07433600
Se   21.59865000    6.94901000   13.26445000      0.443849    0.64120900   -0.72537500
Se   21.49817000   12.91508000    3.78603000      0.788762    0.38955500   -0.89935700
Se   21.37389000   13.59958000   13.26866000      0.211520   -0.76089300   -0.32280600
Se   21.75053000   19.11329000    3.51599000     -1.091621   -0.63455700    1.23081500
Se   21.60589000   18.84300000   12.69523000      0.062504    0.18161100    0.72393000
Se    1.70749000    4.46856000    3.79076000      0.310584    1.07893100    0.76819200
Se    1.52599000    4.33511000   12.96417000      0.437840    0.05285400    1.16984200
Se    1.30662000   10.15366000    3.93952000     -0.257935    0.45197500   -0.54723600
Se    1.03234000   10.21013000   13.14879000      0.534922    0.61771900    0.39057800
Se    1.32188000   15.62582000    3.82032000      0.802873    0.15386200    0.41181600
Se    1.17601000   16.05243000   13.28311000      0.126513   -0.02022700    0.08751500
Se    1.55317000   21.93310000    3.91571000     -0.231197   -0.12618500   -0.20582800
Se    1.67826000   21.76190000   13.48375000     -1.098224    0.60690900   -0.99963400
Se    7.24497000    4.42017000    3.79874000      0.111127   -0.75627900   -0.06532600
Se    7.25115000    4.55435000   13.43135000     -0.176426   -0.77239300    0.32080500
Se    7.40797000   10.34090000    3.54741000     -0.460885   -0.34001900   -0.12764500
Se    6.85967000   10.16774000   13.85449000     -0.234180    0.55032600   -0.87707200
Se    7.52632000   15.80361000    2.99289000      0.311270   -0.64417500    0.61817100
Se    7.27842000   16.13586000   13.87936000     -0.586933    0.22837500   -0.40866700
Se    7.35957000   21.63198000    3.53285000      0.255310    1.30119100    0.42339000
Se    7.29508000   21.59242000   14.15993000      0.309951   -0.84450100   -0.66761200
Se   13.24327000    4.46923000    3.49439000     -0.301883   -0.07655300    0.31607900
Se   13.38146000    4.46473000   13.77015000     -0.294759   -0.94080300   -0.54920300
Se   12.88070000   10.30301000    3.80114000     -0.681813    0.18684500   -1.17519100
Se   13.41297000   10.12683000   13.41898000     -0.038064    0.58147100    0.30800700
Se   13.20184000   15.84824000    3.27466000      0.304196    0.09236900    1.10273600
Se   12.99811000   16.59959000   13.91957000     -0.289297   -0.54725600   -0.43062200
Se   13.14156000   21.93244000    3.63600000      0.403288   -0.21971300    0.28316900
Se   12.94972000   21.99345000   13.67145000     -0.015835   -0.28392100   -0.04821600
Se   18.37886000    4.33905000    3.94821000      0.502603   -0.98369800   -0.24788100
Se   18.80505000    4.21131000   13.16849000     -0.245795    0.43929300    0.19250100
Se   18.99214000   10.23127000    3.27948000     -0.466430   -0.97655100    0.44249500
Se   18.80891000   10.02715000   13.25029000      0.220974    0.26303700   -0.15829600
Se   18.23993000   15.60291000    3.74362000      0.586738   -0.02651000   -0.06883100
Se   18.33192000   16.15347000   13.51475000      0.228085   -0.58123400   -0.73673400
Se   18.81095000   22.27896000    3.99539000      0.706901   -1.37910300    0.17892100
Se   18.48731000   21.43590000   13.78247000      0.068219    0.62302700   -0.68914900
