384
23.23808000 23.23808000 19.51320000
Ge    5.91061000    5.47774000    9.85990000      0.022711    0.56849600   -0.47692200
Ge    6.08475000    5.75313000    0.03857000     -0.058217   -0.35726000   -0.96219300
Ge    5.53051000   11.39712000    9.54559000      0.535102   -0.51792300   -0.76922200
Ge    5.85301000   11.50564000   19.47580000     -0.203205    0.21171500   -0.38340100
Ge    5.94617000   17.06971000    9.74308000     -0.477534   -1.04290200    0.10729500
Ge    5.69772000   17.54209000    0.08180000      0.280732   -0.35406700    0.94456700
Ge    5.89149000   23.07777000    9.70840000     -0.380935    0.24805500    0.76214800
Ge    5.57017000   23.23431000    0.27987000      0.015472    1.22326200   -0.09078900
Ge   11.59494000    6.19035000    9.58618000      3.872586   -1.75369100    1.69015200
Ge   11.71835000    5.48840000    0.36267000      0.135204    0.11070500   -0.68703200
Ge   11.89835000   11.60955000    9.62718000     -0.572225    0.91321500    0.59295300
Ge   11.49323000   11.78933000   19.15957000      0.511832    0.12775000    0.69612900
Ge   11.45517000   17.36653000    9.66273000      0.812594   -0.39515600    0.43861500
Ge   11.50794000   17.29887000    0.18891000     -0.640115    0.28270600    0.23273200
Ge   11.68584000   23.15166000    9.87097000     -0.459405    0.78803900   -0.54372600
Ge   11.81924000   23.09233000   19.37383000     -0.196117   -0.12071500    0.61349900
Ge   17.34900000    5.84656000    9.69811000     -1.082361   -0.07707000   -0.96139000
Ge   17.19065000    5.63269000   19.48279000      0.211318    1.45907800   -1.09329000
Ge   17.69093000   11.67928000    9.77123000      0.056774   -0.54633000   -0.59588400
Ge   17.40575000   11.47784000    0.10259000      0.059104    0.50348900   -0.29645900
Ge   17.27928000   17.32003000    9.61986000      0.625253    0.96303500    0.53640800
Ge   17.24519000   17.67468000    0.06541000      0.559027    0.32895100   -0.08417900
Ge   17.66055000    0.00885000    9.70284000      1.072161   -0.19803700    0.14813800
Ge   17.48356000   23.09671000   19.15934000     -0.682806   -0.06898800    0.23312100
Ge    0.01069000    6.03086000    9.67168000     -0.587603    0.37633600    0.39641500
Ge   23.23506000    5.80733000    0.01817000      0.361588    0.00484000    0.94480400
Ge   23.16270000   11.82904000   10.31784000     -0.361907    0.53834000   -2.17163300
Ge    0.00406000   11.81418000   19.22651000     -0.671923    0.23855100    0.06649800
Ge   23.15560000   17.62035000    9.87434000     -0.113675    0.19266500    0.22232300
Ge   22.97676000   17.20788000   19.42341000     -0.261643    1.62658700   -0.20617200
Ge    0.08503000    0.04628000   10.03963000     -0.879926    0.63399000   -0.02135600
Ge    0.11195000   23.18983000   19.48580000      0.370719    0.24109300   -0.26568900
Ge    3.00736000    5.76769000    7.29617000     -0.559148    0.87371800    0.43242400
Ge    3.01236000    5.79533000   17.27644000     -0.017026   -0.60274400   -0.82264700
Ge    2.64889000   11.60478000    7.34804000     -1.097404   -0.15262200    0.68127600
Ge    3.07278000   11.58998000   16.98459000      0.183418   -0.39180700   -0.02709300
Ge    2.84351000   17.55757000    7.69808000     -0.110119   -0.56668800   -0.98275700
Ge    2.92792000   17.23557000   17.09232000     -1.124487    0.37584600    1.05407600
Ge    2.87821000    0.09977000    7.64215000      0.333163   -1.87707700   -0.65270200
Ge    3.15669000   22.90796000   17.02650000     -0.685677    0.63181200   -0.03332800
Ge    8.63686000    5.79597000    7.33463000      0.661931    1.72109300   -0.39963500
Ge    8.84712000    5.90720000   17.04160000      0.210095   -0.81144000   -0.10480200
Ge    8.78600000   11.70985000    7.11243000      0.542357   -0.80530000    0.84822300
Ge    8.73403000   11.45172000   16.86648000     -0.304650   -0.50092300    0.91843900
Ge    8.63730000   17.31423000    7.31319000     -0.317163   -0.20624100   -0.32500900
Ge    8.50509000   17.27986000   17.17051000     -0.307726   -0.33196000    1.00846700
Ge    8.53704000   23.15862000    7.12827000      0.783502   -0.86289400   -0.07649300
Ge    8.69729000    0.03596000   17.19487000      0.163536   -1.29634300   -0.05382600
Ge   14.65730000    5.63824000    7.11508000     -0.310185    0.61221900   -0.74137600
Ge   14.32658000    5.71639000   16.91107000     -0.304943    0.76035600    0.36511400
Ge   14.79952000   11.50970000    7.16554000     -0.530263    0.05522800    0.96660900
Ge   14.60426000   11.50662000   16.94519000      0.034872    0.78853800   -0.11559100
Ge   14.35725000   17.65582000    7.39648000      0.959026    0.14258500    0.41945700
Ge   14.38019000   17.75608000   17.29388000      1.163467   -0.04957600   -0.58116600
Ge   14.68388000    0.03859000    7.74953000     -2.229473    0.26602600   -0.22536100
Ge   14.46259000   23.23048000   16.63439000      0.453824    0.86170700    0.80788700
Ge   20.37498000    5.89949000    7.09412000     -0.967261   -0.35754800   -0.18796300
Ge   20.35804000    6.07398000   17.00096000     -0.593989    0.06760600    0.85497900
Ge   20.70404000   11.58504000    7.14761000     -1.177389    0.85116500    0.56842400
Ge   20.22305000   11.71263000   17.10716000      0.250598    0.67755000   -0.39459800
Ge   20.39393000   17.21663000    7.37067000     -0.448425   -0.22617500   -0.77028200
Ge   20.19152000   17.37123000   17.07670000     -0.124261   -0.21490400   -1.57177900
Ge   20.61239000    0.43448000    7.22098000     -0.188535   -0.71584900    0.20627300
Ge   20.64143000   23.19844000   17.10675000     -0.558890   -0.37229000    0.22069000
Ge    2.96106000    2.70149000    5.11578000     -1.126196    0.16156700   -0.23621000
Ge    2.76916000    3.08205000   14.81993000     -0.339014   -0.67385300   -0.63761000
Ge    3.05097000    8.90060000    4.89277000      0.307664   -0.81752900   -0.17838000
Ge    3.28449000    8.51832000   14.64784000      0.369518    1.43750300   -0.56424800
Ge    2.94348000   14.33166000    4.87871000     -0.981692    0.18720700   -0.64854200
Ge    2.71579000   14.62817000   14.66413000     -0.547469   -1.78060600   -0.37435400
Ge    2.90636000   20.46905000    5.15176000     -0.025743   -1.17618900    0.52457600
Ge    3.17368000   19.96012000   14.67795000     -1.167181    1.00738600    0.44910100
Ge    8.79025000    2.78130000    5.17507000     -0.645427   -1.08871700   -1.04103300
Ge    8.69320000    2.72731000   14.47624000      0.543643    0.51232300   -0.22988700
Ge    8.95205000    8.67684000    4.70926000     -0.275943    0.46660800    0.68392800
Ge    8.46813000    8.65819000   14.43890000      1.886859    0.63629700   -1.23397800
Ge    8.74013000   14.54905000    4.74890000      0.284583   -0.51025000   -0.23591000
Ge    8.34835000   14.30500000   14.62179000      1.224230    0.49763300    0.04423300
Ge    8.46627000   19.89371000    4.58215000      0.491450    0.18158700    0.43852800
Ge    9.02881000   19.82182000   14.72762000     -1.693138    0.55799000    0.97519500
Ge   14.71440000    2.81044000    4.78611000     -0.281559    0.20439900    0.36448100
Ge   14.41611000    3.00501000   14.37753000     -0.560975    0.38595300    0.86761200
Ge   14.66286000    8.81873000    4.89365000     -0.750945   -0.36396400    0.59899300
Ge   14.30786000    8.80986000   14.62334000      0.445089    0.75901300   -0.05717300
Ge   14.53243000   14.58691000    4.99344000     -0.232136    0.60060800    0.25147200
Ge   14.53449000   14.77800000   14.64622000      0.735184   -0.16932400   -0.16338500
Ge   14.47927000   20.68623000    5.15837000      0.027475   -0.61850700   -0.42613200
Ge   14.10494000   20.46225000   14.33440000      1.693589   -1.57747000    0.88069500
Ge   20.58049000    2.86121000    4.66120000     -1.970115   -0.02278500   -0.80033600
Ge   20.21039000    2.85213000   14.83286000      1.023978    0.92574100    0.68091300
Ge   20.45624000    8.83259000    4.55703000     -0.765060    0.28629000   -0.00067400
Ge   20.42841000    8.85999000   14.50399000      1.237209    0.84713200   -0.76605400
Ge   20.20472000   14.33528000    4.63861000     -0.281752    1.32516200    0.33852400
Ge   20.12493000   14.56597000   14.63650000     -0.050543    0.21983500   -0.30497900
Ge   20.26945000   20.36852000    4.96692000      0.234160   -0.00330600    0.03790700
Ge   20.26367000   20.48024000   14.67583000     -1.973301    0.00718300    0.44136000
Ge    5.86985000    2.84656000    2.64950000      0.685995   -0.31383700    0.42278300
Ge    5.68045000    2.72055000   12.04630000     -0.114280   -0.26701600    1.22987500
Ge    5.94753000    8.67900000    2.20852000      0.415232   -0.89785100    0.82240800
Ge    5.74153000    8.54058000   11.91098000     -0.954328    1.61625500   -0.21552100
Ge    5.68668000   14.35699000    2.50407000     -0.448766   -0.72097500   -1.19325600
Ge    5.74520000   14.34206000   12.04872000     -1.026703   -0.07572000    0.13082500
Ge    5.46174000   20.37254000    2.44563000      0.949275   -0.01860000    0.69375400
Ge    5.76942000   19.99758000   12.24716000      0.652843    1.32506600   -0.24751600
Ge   11.84216000    2.69535000    2.56265000     -0.832960   -1.03076100    0.29489500
Ge   11.52199000    3.12072000   11.89768000      1.602654   -0.55301900    1.00151400
Ge   11.77422000    8.99504000    2.42993000     -0.605604   -0.56386100   -1.56990900
Ge   11.60008000    8.81893000   12.24186000      0.089315    0.02407700   -1.50605000
Ge   11.76463000   14.72185000    2.42647000     -1.159830   -1.28585500   -0.23186500
Ge   11.57717000   14.40443000   12.26069000     -0.534113    0.07986700   -0.00427400
Ge   11.38129000   20.47421000    2.47303000      0.644927   -1.59466500    0.42474900
Ge   11.29411000   20.43613000   11.93961000      0.896261   -1.73143900    1.21172700
Ge   17.41513000    2.69982000    2.24017000      0.664821   -0.55147300    0.20706300
Ge   17.63902000    2.81275000   12.23227000     -0.261659   -0.56884400   -0.65875700
Ge   17.56922000    8.80268000    2.33434000     -1.764561   -1.80938200    0.20071000
Ge   17.37982000    8.57345000   12.14276000     -0.293419   -1.10705500    0.02701300
Ge   16.96525000   14.62178000    2.62657000      1.632560    0.24697600   -1.35990800
Ge   17.28530000   14.49003000   12.07337000      0.620467    0.60863700    0.40763400
Ge   17.28993000   20.39589000    2.59449000     -0.564824    0.97756000   -0.56026400
Ge   17.53477000   20.24007000   12.27455000     -1.391078   -0.17397300   -0.35514400
Ge    0.45746000    2.98758000    2.41503000      0.591212    0.23966800   -0.30072900
Ge   22.93059000    3.48495000   12.47363000      1.120120   -0.81667900   -0.36972800
Ge    0.42764000    8.85953000    2.44150000      0.642576   -0.28670100   -0.63534200
Ge    0.20313000    9.09317000   12.08105000     -1.526716   -0.65843200    0.82525300
Ge   23.04475000   14.72548000    2.27163000     -0.268539   -1.07043700   -0.03130700
Ge   22.89449000   14.68844000   12.45887000      0.552905    0.80182700   -0.46869500
Ge   23.07600000   20.47369000    2.33267000      0.693248    0.04650400    0.78491200
Ge   23.20132000   20.34648000   12.53619000      0.726399    0.20754100   -1.37354300
Se    1.74679000    1.44330000    0.91143000     -0.437813    0.44659200    0.87570900
Se    1.29462000    1.70073000   11.36844000     -0.624010    0.17447300   -0.02096400
Se    1.75614000    6.78814000    1.64553000     -1.355785    0.91860100   -0.50910700
Se    1.49789000    7.46319000   11.03769000      0.006756   -0.87822400   -1.00587800
Se    1.33673000   13.26557000    0.97982000      0.077909    0.39211700    0.75244000
Se    1.35311000   13.19361000   11.59537000      0.108326    0.14533400   -0.32713000
Se    1.06205000   18.88702000    1.05178000      0.596639    0.18307000    0.14842400
Se    1.47678000   19.08092000   10.92945000     -0.960163    0.14304700    0.80923500
Se    7.22693000    1.16200000    1.58362000     -0.275230    0.26252500    0.00076100
Se    7.37081000    1.41536000   10.92842000     -0.469953   -0.15014700   -0.21253500
Se    7.57004000    7.28572000    1.05526000     -0.272869    0.01261900    0.10252800
Se    7.29148000    7.24333000   10.85605000      0.331047   -1.00459900   -0.60977600
Se    7.33134000   13.03269000    1.05051000     -0.618717    0.36893500    0.62707400
Se    7.04699000   12.74382000   10.71547000      0.470273    0.86000400    0.67544300
Se    7.03985000   19.06292000    1.31215000      0.518301   -0.18334200   -0.49420300
Se    7.19453000   18.62234000   11.00516000      1.136765    0.05710600   -0.15563900
Se   13.29136000    1.08403000    1.31335000     -0.512736    0.55411800    0.18632300
Se   13.14419000    1.39317000   11.10645000     -0.771605    0.24413900   -0.35056600
Se   13.01109000    7.40818000    1.00590000      0.391920   -0.04826800    0.39422000
Se   13.34093000    7.58091000   10.99653000     -1.572568   -0.44070200   -0.44762600
Se   13.15859000   13.28995000    0.80599000     -0.938383   -0.03474400    0.39551800
Se   13.11331000   13.11802000   11.09609000      0.473146   -0.46512900   -0.75823500
Se   12.99107000   18.91471000    1.25228000     -0.721402    0.34209200    0.25903100
Se   12.86245000   18.91961000   10.83198000     -0.024996    0.25693300    0.07046900
Se   18.84194000    1.31044000    0.95425000      0.378506    0.21192800    0.19888500
Se   19.22064000    1.25610000   11.14193000     -0.681468    0.54866000    0.01029500
Se   18.67885000    7.26432000    0.96196000      0.575723   -0.52674600    0.05278200
Se   18.84717000    6.95616000   11.04170000      0.336992    0.87803000    0.55929200
Se   18.70260000   13.11204000    1.22833000     -0.919594    0.40434900    0.59822500
Se   18.98077000   13.19044000   10.98359000      0.319798    0.44445100    0.27601100
Se   18.80974000   19.38378000    1.18769000     -0.208450   -1.75603400   -0.38420400
Se   18.98815000   18.67551000   11.30639000     -0.857809   -0.48149300   -0.98928500
Se    4.63700000    4.24968000    1.23400000     -0.584928    0.24573300   -0.09863600
Se    4.19203000    4.15970000   10.88840000      0.393918    0.40493200   -0.14353500
Se    4.39351000   10.16073000    1.35521000     -0.181643    0.41733200   -0.60835700
Se    4.04397000   10.08170000   10.73787000      0.522480   -1.00020500    0.65610100
Se    4.32855000   16.39270000    1.66454000     -0.103303   -1.22373300    0.15654000
Se    4.14815000   15.97159000   11.12653000      1.409804   -0.44557100   -0.64227200
Se    4.02748000   21.80341000    1.34078000     -0.549812    0.10527600    0.08167800
Se    4.49514000   21.84355000   11.34556000      0.218052   -0.06293800   -0.39026800
Se   10.14033000    4.02406000    1.35923000      0.519874   -0.26987400    0.40013100
Se   10.34388000    4.98720000   11.20205000     -1.054816   -0.13241300   -0.22597500
Se   10.22887000   10.10325000    0.87130000      0.239771    0.42160100    0.45097800
Se   10.26092000   10.44806000   10.83856000     -0.079093   -0.94791800    0.55423500
Se    9.84576000   15.84898000    1.35594000      1.672500    0.09346000   -0.17796000
Se   10.19106000   16.00083000   11.15482000     -0.657887   -0.28349900   -0.13615700
Se   10.06757000   21.86460000    1.09712000      0.302275    0.20130000   -0.10580600
Se    9.93861000   21.73860000   10.67094000     -1.022683    0.55181800   -0.12168600
Se   15.92226000    4.07007000    1.13004000     -1.334282    0.14759800   -0.09746700
Se   16.11767000    4.20178000   10.97609000      0.062555    0.10847800   -0.16690500
Se   15.95185000    9.86284000    1.03560000     -0.569790    0.70972600   -0.04704400
Se   16.19544000   10.25369000   11.02540000     -0.655139    0.28931200   -0.60567400
Se   15.64815000   15.95069000    0.99210000      0.734331    0.31255900    0.43885600
Se   15.79818000   15.80770000   10.71959000      0.043029    0.11548300    0.15451100
Se   15.92747000   21.80171000    1.07081000      0.456546    0.31687800    0.09690600
Se   16.21398000   21.86832000   10.92124000     -0.127574   -0.78052600    0.33286500
Se   21.92817000    4.14448000    1.29576000      0.262513    0.67750700   -0.60179500
Se   21.57857000    4.99952000   11.26309000      0.188500   -0.09519300   -0.78676900
Se   22.12643000   10.00146000    0.97248000     -0.101762    0.29263000    0.01269400
Se   21.58861000   10.40620000   11.28914000      0.323636   -0.69313600    0.17713000
Se   21.40619000   16.23512000    1.31539000     -0.042479   -0.51279400    0.19614200
Se   21.57830000   16.18427000   10.99099000      0.432237   -0.30630200    0.39680900
Se   21.67745000   22.04763000    1.25205000      0.163455   -0.16072300    0.08569400
Se   21.73698000   21.68721000   11.16037000      0.552179    0.61103000   -0.32785600
Se    1.53393000    4.42423000    8.73272000     -0.151530    0.20505400   -0.15890800
Se    1.47537000    4.28949000   18.37985000      0.121919    0.22786100   -0.34708300
Se    1.17283000   10.21020000    8.97955000      0.509202    0.86079100   -0.75409900
Se    1.37389000   10.29020000   18.08284000      0.351294   -0.75719900   -0.10874600
Se    1.49235000   16.12170000    8.94595000     -0.448079   -0.77167800   -0.02210700
Se    1.42541000   15.89013000   18.63177000      1.145329   -0.64182700   -0.87520200
Se    1.36105000   21.83778000    8.65389000     -0.197174   -0.43442500    0.39693300
Se    1.82395000   21.57981000   18.66397000     -0.737579    0.27048900   -0.85314800
Se    7.75389000    4.30434000    8.82963000     -0.817197   -0.90383800    0.44849500
Se    7.28956000    4.26273000   17.94737000     -0.053012    0.86354700    0.51881600
Se    7.43647000   10.05387000    8.48724000     -0.330125    1.05018700   -0.21252700
Se    7.11223000    9.90954000   18.13394000      0.411985    1.21319700    0.03613000
Se    7.67054000   15.49988000    8.60920000     -1.041954    1.21275800    0.28973900
Se    6.93122000   15.88946000   18.56193000      0.931430   -0.21531700   -0.70715500
Se    7.15219000   21.60688000    8.26774000     -0.250840    0.05643600    0.54012000
Se    6.92436000   21.99743000   18.43168000      1.304164   -1.03803200   -0.89711200
Se   12.95388000    4.51385000    8.16457000     -1.122727   -0.78529900    1.10735700
Se   13.20997000    4.26161000   18.42875000     -0.250031   -0.50450600    0.23213900
Se   13.28729000   10.08110000    8.67059000      1.207428   -0.33754000   -1.15236100
Se   12.93022000   10.18273000   18.03963000     -0.109154    0.24933100    0.01251200
Se   13.12962000   16.02544000    8.49874000     -0.778648   -0.20780500    0.58831600
Se   13.21619000   16.03680000   18.60074000      0.154957   -0.01409800   -0.58589400
Se   12.95918000   21.60754000    8.70841000      1.202149    0.57327300   -0.57084800
Se   13.36934000   21.72600000   18.16514000     -0.382672   -0.05946900    0.12430400
Se   18.65176000    4.57766000    8.11648000      0.145869   -0.13042400    0.28814900
Se   18.93857000    4.50670000   18.30716000      0.329688    0.01583100   -0.42003800
Se   19.33592000   10.21857000    8.71373000     -0.065012    0.01725800   -0.44224400
Se   19.00966000   10.08881000   18.50082000      0.420653    0.36246400   -0.40682500
Se   18.72156000   15.83232000    8.41283000      0.072320    0.25881200    0.02045300
Se   18.85312000   16.11672000   18.43951000     -1.005132   -0.46710800    0.77291900
Se   19.13672000   21.98885000    8.19674000     -0.330756    0.52219400    0.69275200
Se   19.29395000   21.63034000   18.38889000     -0.320941    0.21365000   -0.26315300
Se    4.03888000    1.40646000    9.07140000      1.379515    0.38173300    0.65957700
Se    4.21609000    1.39831000   18.33022000      0.529646    0.01475700    0.13474300
Se    4.78594000    7.04529000    8.38538000     -0.459535   -0.18112100   -0.06873500
Se    4.37513000    7.22605000   18.48978000      0.928918   -0.07035100    0.48358500
Se    4.19308000   13.02592000    8.45473000      0.155343    0.43195700    0.02706500
Se    4.16646000   13.06071000   18.48786000      0.869777   -0.57750600    0.26673900
Se    4.60544000   18.73614000    8.67425000      0.352114    0.29340300   -0.18688600
Se    4.23512000   18.81647000   18.36411000     -0.607018    0.62411900   -0.78624300
Se   10.11908000    1.22951000    8.41388000      0.298361    0.04944100    0.27545400
Se   10.24219000    1.38039000   18.43326000     -0.114711    0.45280900   -0.35787700
Se   10.38797000    7.51963000    8.45469000     -2.873517    1.79745400   -2.16548900
Se   10.45940000    6.97559000   18.50182000     -0.569881    0.41077400   -0.39870500
Se   10.37738000   13.08927000    8.48738000     -0.448508   -0.10312900   -0.47451200
Se    9.78443000   13.20213000   18.19402000      0.388530   -0.67989800   -0.23682200
Se   10.08119000   18.82631000    8.49078000     -0.450869    0.37779900   -0.36253400
Se   10.11135000   18.66786000   18.35638000     -0.266537    0.15300200   -0.21761900
Se   15.97847000    1.51384000    8.99121000      0.135661    0.65820600   -0.09623200
Se   16.08212000    1.45220000   17.90997000     -0.061141   -1.02151200   -0.13943800
Se   15.52369000    7.23665000    8.50000000      1.697183    0.14504900    1.09323000
Se   15.80746000    7.19723000   18.00189000      0.795315   -0.47404100    0.86246300
Se   16.17479000   12.97022000    8.44759000      0.058609    0.19245600    0.19136300
Se   16.10364000   12.91659000   18.22102000     -0.405636    0.05484200   -0.14645600
Se   15.98957000   19.10280000    8.52061000      0.075789   -0.93334200    0.22597000
Se   15.99122000   19.39242000   18.34911000     -0.391982   -1.56960600   -0.03661500
Se   22.06010000    1.79597000    8.59524000     -0.095845   -1.10577200    0.38218100
Se   21.75142000    1.50533000   18.45138000      0.794054   -0.05908400    0.05017000
Se   21.80588000    7.42075000    8.05337000      1.062180    0.01179500    1.14177300
Se   21.85830000    7.41224000   18.34272000      0.172978   -0.02499600    0.09108400
Se   21.88575000   13.22319000    8.53034000      0.375292   -0.54762600    0.42361100
Se   21.81126000   13.41607000   18.00695000     -0.180271   -1.28909600    0.36736400
Se   21.47142000   18.89787000    8.64621000      0.421710   -0.01483700   -0.01853700
Se   21.96709000   18.64656000   17.71785000      0.923281    0.97471000    1.12059100
Se    1.39054000    1.30333000    6.38851000     -0.066865    0.92977600   -0.98281800
Se    1.46729000    1.30381000   16.10206000      0.645131    0.30622300   -0.29302100
Se    1.50015000    7.22072000    5.95608000      0.727320    0.28947100    0.05092300
Se    1.79059000    7.50158000   16.05184000     -1.006088   -0.61184800    0.55921400
Se    1.24711000   13.02869000    5.95041000      0.053803   -0.25837900    0.38216700
Se    1.45062000   13.05553000   16.11014000      0.054049    0.49014800   -1.02447100
Se    1.36325000   18.84370000    6.45160000      0.370378    0.76724100   -0.61243700
Se    1.38926000   18.75543000   16.05304000      1.098367    0.51684000   -0.62749800
Se    7.03228000    1.43343000    6.16203000      0.300614    0.11665500   -0.10288100
Se    7.28683000    1.27066000   15.74055000     -0.070467    0.18112600   -0.00144800
Se    7.26647000    7.36146000    5.99423000      0.776575   -0.25583300   -0.00644800
Se    7.29695000    7.30195000   15.80882000     -1.449694   -0.92752800    0.69860600
Se    7.26045000   13.11466000    5.97999000      0.120799   -0.16977800    0.03945200
Se    7.03163000   12.74221000   15.83083000     -0.161457    0.16592600   -0.36686900
Se    7.06977000   18.50258000    5.86415000     -0.603108   -0.27084300    0.73067500
Se    7.14245000   18.73840000   16.02594000      0.420419    0.68375300   -0.63177600
Se   13.25335000    1.75224000    6.40289000      0.767863   -0.89400100    0.19595600
Se   12.85911000    1.56660000   15.85596000      0.692547    0.27081400   -0.66894500
Se   13.19614000    7.50762000    6.36134000      0.534770    0.10653600   -0.72768200
Se   12.86223000    7.18309000   15.66564000      0.076193   -0.03108100    0.25488400
Se   13.28618000   13.32562000    6.54038000     -0.241188   -0.73642100   -0.07568700
Se   13.20558000   12.95681000   15.47545000      0.062000   -0.08266500    0.84834400
Se   13.05341000   19.16237000    6.26086000     -1.094234    0.18441900   -0.19954500
Se   12.90009000   19.16771000   16.13294000     -0.342333    0.17831000   -0.76224800
Se   18.94673000    1.56564000    5.93215000      0.702525   -0.06176000   -0.29455900
Se   19.01315000    1.30063000   16.10523000     -1.050126    0.40218800   -0.15584100
Se   19.01657000    7.42061000    5.79453000     -0.271491   -0.24724900    0.01508600
Se   18.99819000    7.76710000   15.90039000     -0.794630   -1.05462900    0.66649100
Se   18.86424000   12.90753000    5.89854000      0.195973   -0.73968800    0.67119000
Se   18.71853000   13.23444000   15.87752000     -0.676553   -0.80972100    0.86410400
Se   18.89315000   18.61499000    5.92834000      0.512458    0.12737600    0.16866100
Se   18.71998000   18.98001000   16.06282000      0.701671    0.40701100   -0.74243900
Se    4.34771000    4.18719000    6.25273000      1.139641   -0.01051800    0.27183400
Se    4.45555000    4.45333000   15.73644000     -0.304872    0.30635100    0.70945400
Se    4.34272000   10.18452000    6.51663000     -0.117066   -0.59659800   -0.75043100
Se    4.76368000   10.13838000   15.89350000     -0.989751   -0.25763600   -0.32497900
Se    4.04850000   15.79786000    6.33926000      0.789039    0.57332400    0.21603300
Se    4.26064000   15.66742000   15.99367000      1.358520    0.54391200    0.35433100
Se    4.43486000   21.64867000    6.60479000     -0.736525    0.44982800   -0.25362200
Se    4.62424000   21.82196000   15.40846000     -0.231578   -0.34168500    0.58893300
Se   10.10929000    4.13895000    6.42387000      1.065095    1.05688200    0.46556400
Se   10.09086000    4.52631000   15.44135000     -0.080992   -0.30009700    0.23146700
Se   10.43742000   10.31120000    5.91815000     -1.265641   -0.17385600   -0.06912400
Se   10.09159000    9.70610000   15.93084000     -0.135657    0.65391600   -0.29346300
Se   10.09261000   16.20542000    5.78715000      0.452056   -0.31013600    0.36653800
Se    9.81706000   15.99393000   15.75796000      0.228370   -0.89658200   -0.36198300
Se    9.82913000   21.34023000    5.95875000     -0.122124    0.67680700    0.52083700
Se   10.18190000   21.42236000   16.18232000     -0.577008    0.65127800    0.12365200
Se   16.15363000    4.52984000    5.63770000      0.174025   -0.10176300    0.24153300
Se   15.84431000    4.34400000   15.85100000      0.295066   -0.71396900   -0.63989000
Se   16.31398000   10.27550000    5.78782000     -0.304069    0.09131900    0.23463700
Se   16.13985000   10.06217000   15.88901000     -0.946740   -0.57854200   -0.58534600
Se   15.81590000   16.35677000    6.07791000      0.810334   -0.58785400   -0.46254500
Se   15.96616000   16.42781000   15.74737000     -0.942896   -0.16445300    0.55528200
Se   15.99949000   21.85105000    6.51641000      1.367447   -0.29908900   -0.71612700
Se   15.88308000   21.88239000   15.29760000     -0.616204   -0.31171600   -0.02562000
Se   21.69776000    4.10587000    6.23107000      1.231009    0.72766500    0.21804500
Se   21.82390000    4.63777000   15.94811000     -0.568186   -1.11520100   -0.78781200
Se   21.95513000   10.31177000    5.57872000      0.629493    0.29499700    0.56314600
Se   21.74192000   10.63811000   15.51168000     -0.510737   -0.31127500    0.55701400
Se   21.71797000   15.38039000    6.32334000     -0.269317    0.72979100   -0.42782300
Se   21.71193000   15.94655000   15.70480000     -0.720275    0.48939700    0.51133100
Se   21.81610000   21.75260000    6.21568000     -0.138001    0.41157400   -0.11617100
Se   21.80093000   22.09104000   15.36492000      1.153857    0.03605900    0.43341200
Se    4.40963000    1.32573000    3.89014000      0.392781   -0.01377700   -0.43264300
Se    3.91926000    1.45971000   13.38593000      0.783855    0.40194700   -0.12057300
Se    4.73672000    7.23741000    3.70465000     -0.855071    0.87434000    0.29373500
Se    4.59410000    7.02759000   13.28589000     -0.226443   -0.18732100    0.53805500
Se    4.21851000   12.63855000    3.65892000      0.422065    1.39028600   -0.11814100
Se    4.07494000   13.01465000   13.32930000      0.395070    0.57258300    0.26987800
Se    4.37022000   18.90300000    3.91678000     -0.735975    0.08109400    0.32926200
Se    4.40360000   18.50301000   13.28659000     -0.929494   -1.03621800    0.57617500
Se   10.69091000    1.34878000    4.53550000     -0.378039    0.72539000   -1.13065200
Se   10.57444000    1.44959000   13.35923000     -1.121245    0.83242600   -0.04554700
Se   10.61508000    7.39101000    3.63521000     -0.392291   -0.98115000    0.19096600
Se   10.47215000    7.26897000   13.55333000     -1.477679    0.09299800    0.35390800
Se   10.36970000   13.05121000    3.69559000      0.032988    0.64097000   -0.16323300
Se   10.31126000   13.03381000   13.76118000     -0.719909    0.01830100   -0.02540900
Se   10.20081000   18.54344000    3.62001000      0.169862    1.20167200   -0.41710900
Se   10.47063000   18.58499000   13.41570000      0.097152    0.13256900   -0.51008100
Se   16.13164000    1.26399000    3.65492000     -0.411081   -0.27873900    0.02501900
Se   15.82112000    1.51997000   13.23219000      0.494378   -0.60126300   -0.22089500
Se   15.92542000    7.32682000    3.71072000      1.153467   -0.16582200   -1.00112600
Se   15.61365000    7.30406000   13.28997000      0.638502    0.05872200   -0.20389500
Se   15.64498000   12.94342000    3.67180000      0.170160    0.52259100    0.00461100
Se   15.99844000   13.16426000   13.49021000     -0.373129   -0.10923100    0.17109100
Se   15.54895000   19.18387000    3.61874000      0.344683   -0.34127700    0.21477700
Se   15.45957000   18.84959000   13.05127000      0.529185    1.10982100    0.08181900
Se   22.09524000    1.52493000    3.38997000     -0.350439   -0.58410700    0.66473000
Se   21.86411000    1.67051000   13.64282000      0.234126    0.16565200   -0.38980100
Se   22.04016000    7.49624000    3.54306000      0.424632   -0.88833900   -0.30042600
Se   22.27285000    7.59225000   13.61249000     -0.500846   -0.05300600    0.00736500
Se   21.43657000   13.02383000    3.13880000      0.868274    0.43961700   -0.12317600
Se   21.60785000   13.07339000   13.52814000      0.004204   -0.05890400   -0.01232200
Se   21.98804000   19.07873000    3.86552000     -0.535136   -0.52973000    0.20491600
Se   21.43103000   18.97293000   13.37138000      0.556927   -0.91125400   -0.17551600
Se    1.86199000    4.44849000    3.84848000     -0.525119   -0.81037900   -0.49509700
Se    1.50836000    4.77000000   13.46201000     -0.192790   -0.78310400    0.39869600
Se    1.87866000   10.55891000    3.45332000     -0.364004   -1.16803400    0.33988400
Se    1.87784000   10.14321000   13.25858000      1.103288    0.56499100    1.02431800
Se    1.39639000   15.92818000    3.47713000      0.695197   -0.20485800    0.87582800
Se    1.23509000   16.16907000   13.70573000     -0.477379   -0.00332100   -0.46489900
Se    1.46371000   21.77916000    3.90801000     -0.581036    0.50436500   -0.92062100
Se    1.62820000   21.67718000   13.61267000      0.262601   -0.69426700    0.25321900
Se    7.48809000    4.26323000    3.83238000     -0.460133   -0.10584100   -0.39718200
Se    7.05426000    4.23688000   13.42961000      0.227711   -0.76957500   -0.32101200
Se    7.56011000   10.06210000    3.27393000      0.342147    0.38351200    0.48114400
Se    7.49642000   10.04580000   12.62186000      0.181201   -0.06302400    1.22510600
Se    6.94698000   15.82146000    3.76035000      0.466319    0.52666400    0.22128500
Se    7.10557000   15.85299000   13.31642000      0.115192   -0.37678800   -0.01576300
Se    7.26061000   21.61674000    3.53899000     -0.204910    0.22160400   -0.15675300
Se    7.35349000   21.20576000   13.62805000      0.041840    0.42532200   -0.37414700
Se   13.16345000    4.30415000    3.63018000      0.456414   -0.03179000    0.09215100
Se   13.13488000    4.60713000   13.15733000     -0.344616   -0.85371400   -0.19581500
Se   13.22639000   10.28181000    3.60871000      0.584238    1.27675300    0.42019200
Se   12.80442000   10.39945000   13.38950000      1.283156    0.22425100    0.94389000
Se   12.91528000   16.11113000    3.98230000      0.481703   -0.12334200   -0.45468600
Se   13.13722000   15.91789000   13.08198000      0.358416    0.93749100    0.73971600
Se   12.62922000   21.75382000    4.23258000     -0.512544    0.95464500   -0.74184300
Se   12.55989000   21.86641000   13.43087000     -0.626078    0.80636100   -0.70598300
Se   18.73998000    4.22764000    3.39220000      1.217093    0.11914600    0.60681200
Se   18.66783000    4.26469000   13.74790000      0.286784    0.60088600    0.08385800
Se   19.05992000   10.26401000    3.15648000      0.941715    0.96544500    0.85268400
Se   18.84293000   10.05983000   13.08151000      0.812013    0.50169600    0.97582800
Se   18.64780000   16.16453000    3.66693000     -0.109309   -1.37457900    0.19718900
Se   18.64612000   16.06083000   13.45551000      0.029434   -0.34951100   -0.27502700
Se   19.01049000   21.79267000    3.45630000      0.040116    0.36338600    0.71611300
Se   18.62934000   21.94051000   13.50559000      0.606344   -0.75568100    0.42019700
