384
23.23808000 23.23808000 19.51320000
Ge    5.95339000    5.45184000    9.88956000     -0.692935   -0.34844500   -0.19062300
Ge    6.07332000    5.69781000   19.42684000     -0.433629    0.15841300    0.96010200
Ge    5.69585000   11.26230000    9.22718000     -1.199403    1.24639000    1.54568800
Ge    5.63480000   11.46040000    0.04698000      0.201945   -0.00678300   -0.48766100
Ge    5.89702000   16.87362000    9.70453000      0.759318    2.24271300    0.32461400
Ge    5.74808000   17.59597000    0.32126000     -0.695246   -0.43419500   -0.59865500
Ge    5.94293000   22.97009000    9.82031000      0.048225    0.72929700    0.04612700
Ge    5.66445000    0.24563000    0.12255000     -0.180278   -1.44266600   -0.33187100
Ge   12.14329000    5.98821000    9.81542000     -2.952582   -0.54669000   -0.66044700
Ge   11.66469000    5.57961000    0.22328000     -0.022820   -0.45756200   -0.00121400
Ge   11.94287000   11.57267000    9.76226000     -0.135200   -0.20972200   -0.72459700
Ge   11.67076000   11.73533000   19.23557000     -0.794665   -0.45267100   -0.17141000
Ge   11.40898000   17.40967000    9.83962000     -0.597485    0.19720200   -0.44515000
Ge   11.56941000   17.35916000    0.24226000      0.936722   -0.56114100   -1.28211200
Ge   11.40865000   23.02451000    9.72076000     -0.035701   -0.21355200    0.40743600
Ge   11.75592000   23.05549000    0.02449000     -0.053999    0.54423100   -0.22839400
Ge   17.36080000    5.97152000    9.59016000      1.231752   -0.53543300    0.94548800
Ge   17.15027000    5.85163000   19.35023000      0.675111   -1.20658000    1.36319100
Ge   17.62206000   11.52065000    9.66072000      0.063721    0.83851000    0.52507300
Ge   17.64006000   11.46789000   19.44433000     -0.451094    0.09917000    0.39567300
Ge   17.35932000   17.59626000    9.74347000     -0.649018   -1.15089400   -0.38131100
Ge   17.10501000   17.67840000    0.25029000     -0.290160   -0.99890300   -0.49375500
Ge   17.51222000    0.08562000    9.62301000     -0.767063    0.09188300    0.52345400
Ge   17.50231000   23.05628000   19.11219000      0.217721   -0.02294200    1.04353100
Ge    0.05638000    6.03648000    9.68539000      0.381769   -0.03543000   -0.47230500
Ge    0.32220000    5.69389000    0.13740000     -0.011011    0.18139200   -0.96345500
Ge   23.14824000   12.04509000   10.10942000      0.340961   -0.76842200    0.99189800
Ge    0.03633000   11.93477000   19.06120000      0.331149   -1.10472100    1.01884100
Ge   23.09990000   17.50074000    9.84378000      0.131934   -0.53797900    0.11336400
Ge   22.99673000   17.34358000    0.04609000      0.140080   -0.22841800   -0.12511000
Ge    0.09029000    0.13210000    9.96873000      0.896662   -0.99162600    0.20208000
Ge    0.26071000   23.13403000   19.31155000     -0.242001    0.51876800    0.82717400
Ge    2.78187000    5.82776000    7.42795000      0.601087   -0.78453800   -0.94314600
Ge    3.15886000    5.85110000   17.15404000     -0.752071   -0.27328100    0.60130600
Ge    2.59692000   11.62504000    7.32529000      1.426178    0.54294700   -0.09718400
Ge    2.92501000   11.48776000   16.84923000     -0.300338    0.32311700    0.32931800
Ge    2.90979000   17.50704000    7.53923000      0.483927   -0.92301100    0.00923200
Ge    2.53380000   17.28280000   17.10743000      0.841002   -0.33812900    0.23857000
Ge    2.91420000   23.10645000    7.71965000     -0.422060    0.96971200    0.52154000
Ge    3.06008000   23.09959000   17.16851000      0.464978   -0.06620400    0.05859100
Ge    8.91090000    6.06650000    7.38832000     -1.264647   -1.96325700   -0.09501300
Ge    8.95160000    5.78125000   16.96704000     -0.634055    0.74371500   -0.08676100
Ge    8.80206000   11.59747000    7.26831000     -0.460892    0.74342200   -0.28790800
Ge    8.62557000   11.42971000   16.78948000     -0.500624    0.06605900    0.33729100
Ge    8.69295000   17.30352000    7.17295000      0.160279    0.06179700    0.35369600
Ge    8.59157000   17.21511000   17.38715000      0.273244    0.24312600   -1.19280200
Ge    8.55399000   22.97825000    7.10787000     -0.632318    0.23321500    0.93285500
Ge    8.71289000   23.01865000   17.16432000      0.117797    0.48229400    0.31335300
Ge   14.53086000    5.89787000    7.20564000      0.330892   -0.81150600    0.61003800
Ge   14.22830000    5.63014000   16.95026000      0.566473    0.02942800   -0.52159200
Ge   14.76354000   11.57946000    7.26181000      0.194643    0.12040000   -0.29423700
Ge   14.60244000   11.46030000   17.00719000      0.212278   -0.60686300   -0.17577400
Ge   14.37661000   17.70835000    7.38165000     -1.092376   -0.71823000   -0.63424500
Ge   14.54190000   17.74947000   17.33250000     -0.616920   -1.17109700   -1.39906500
Ge   14.48976000   23.10761000    7.71271000      2.075181    0.58599600   -0.68340300
Ge   14.63599000   23.04779000   16.77742000     -0.955190   -0.81023500   -0.70144800
Ge   20.35129000    5.93124000    6.92365000      0.729909    0.09017900    0.46989000
Ge   20.33873000    6.20957000   17.15332000      0.573672   -0.23748300   -0.12287100
Ge   20.44830000   11.84634000    7.09544000      1.013472   -1.54649600    0.87551800
Ge   20.25441000   11.89697000   16.93496000     -0.366942   -0.77242200   -0.05277500
Ge   20.46877000   17.12078000    7.39366000     -0.236842    0.11744700    0.74521400
Ge   20.14074000   17.24694000   17.03841000      0.253308    1.18562500    0.58460000
Ge   20.67487000    0.30360000    7.36453000     -0.455145   -0.53120000   -0.03522500
Ge   20.35489000   23.21119000   17.05356000      0.451366    0.48670000   -0.37691300
Ge    2.87898000    2.80944000    5.19496000      1.153865    0.10488400   -0.21226500
Ge    2.64957000    3.01896000   14.57463000      0.541278   -0.37337100    0.64665300
Ge    3.09345000    8.84428000    4.68615000     -0.580905    0.55282200    0.72640500
Ge    3.25908000    8.66255000   14.59057000     -0.206227   -1.21015200    0.74965000
Ge    2.79858000   14.50183000    4.83390000      0.947086   -0.34376800    1.25911100
Ge    2.64645000   14.46601000   14.58992000      1.148419    1.29096700   -0.26592900
Ge    2.99998000   20.18888000    5.35474000      0.612404    1.80818800   -1.38959900
Ge    2.91972000   19.99162000   14.80978000      1.019573    0.04030500   -0.21293800
Ge    8.75741000    2.76163000    5.01525000      0.428886    1.00566800    0.83834400
Ge    8.84304000    2.65959000   14.61939000     -0.820366    0.09272600    0.47683800
Ge    8.84152000    8.80398000    4.75562000     -0.062983   -0.85047400   -0.69101500
Ge    8.67517000    8.65730000   14.36216000     -2.088422    0.20064600    1.19125000
Ge    8.81739000   14.47757000    4.96110000     -0.528822    0.31751800   -0.73661900
Ge    8.55252000   14.41040000   14.65948000     -0.644562   -0.01457000    0.01005300
Ge    8.45936000   19.93741000    4.62303000     -0.417055    0.14091800    0.48273700
Ge    8.81214000   19.93901000   14.94788000      1.032977    0.27670900   -1.10172400
Ge   14.60403000    2.90179000    4.79331000      1.056306    0.06907300    0.43359500
Ge   14.37884000    3.11018000   14.37251000      0.977621   -0.40137600   -0.71355700
Ge   14.43893000    8.66425000    4.84014000      0.989626    0.71553200   -0.90787900
Ge   14.40553000    8.91118000   14.61067000     -0.432632   -1.53634900   -0.80836400
Ge   14.41027000   14.54503000    5.02886000     -0.223594   -0.32268100    0.13097100
Ge   14.72624000   14.86777000   14.75147000     -1.240266   -0.09334400   -0.07161500
Ge   14.23888000   20.75579000    5.10583000     -0.039185    0.00713900   -0.14369800
Ge   14.12455000   20.14727000   14.51908000     -0.592730    1.36029700   -0.66780000
Ge   20.44510000    2.88249000    4.59437000      2.324227   -0.76508600    1.25196500
Ge   20.14079000    3.00415000   14.92134000     -1.110082   -0.59917900   -0.99164100
Ge   20.53243000    9.02415000    4.40653000      0.730119   -0.20042200    0.62910500
Ge   20.45478000    9.13772000   14.31593000     -0.918206   -0.86459200    0.67494500
Ge   20.27367000   14.62218000    4.67188000      0.197369   -1.61910300    0.32713800
Ge   20.17853000   14.58415000   14.41370000     -0.143556   -0.00822400    0.73365200
Ge   20.25225000   20.40495000    5.14055000      0.129178   -0.17271700   -0.22204200
Ge   20.26060000   20.53942000   14.74307000      2.719507   -0.24456700   -0.67634200
Ge    5.76121000    2.82447000    2.83400000     -0.136780    0.43375500   -0.66676700
Ge    5.84035000    2.48882000   12.32122000     -0.145661    0.50988200   -0.60501200
Ge    6.14465000    8.50465000    2.52875000     -0.685799    0.43241300   -0.83255100
Ge    5.61279000    8.85655000   11.72309000      1.082573   -1.38897700    1.01616700
Ge    5.61586000   14.24286000    2.48924000     -0.146236    1.44066700    0.56592000
Ge    5.77182000   14.27316000   12.21653000      0.868349    0.25266100   -0.41330600
Ge    5.33253000   20.51188000    2.54933000      0.078564   -0.03236500   -0.60749200
Ge    5.85985000   20.05622000   12.43533000     -0.314845   -0.81143400   -0.14708600
Ge   11.83672000    2.45712000    2.59558000      0.629483    1.73558100   -0.34444500
Ge   11.81533000    3.08725000   12.27186000     -1.806194   -0.31395600   -1.52270800
Ge   11.65154000    8.92400000    2.30783000      0.601715   -0.59113900    0.93424300
Ge   11.55425000    8.86051000   12.13144000     -0.363366   -0.05266300    1.45256600
Ge   11.64278000   14.35227000    2.39794000      0.428863    0.47577800    0.18502300
Ge   11.56564000   14.67542000   12.26449000      0.286326   -0.15973300   -0.13690100
Ge   11.38484000   20.14359000    2.33856000      0.360604    2.06979500    0.54143600
Ge   11.30941000   20.47188000   12.17149000     -0.010941    0.11385800   -0.91596800
Ge   17.62971000    2.59094000    2.09359000     -0.786987    0.99728500    0.59905000
Ge   17.51146000    2.83520000   12.20322000      0.249884    0.34032000    0.13581500
Ge   17.39380000    8.66695000    2.45334000      1.126252    1.82809700   -1.30438300
Ge   17.27931000    8.68798000   12.16075000      0.581353    1.12902500   -0.14979700
Ge   17.15600000   14.51637000    2.53570000     -2.402672    0.50644300    0.63636900
Ge   17.43644000   14.74355000   12.07428000     -0.759211   -0.41013700   -0.20408400
Ge   17.35989000   20.64978000    2.52595000      0.703580   -1.01526200    0.38696600
Ge   17.55488000   20.29508000   12.26896000      0.844016    0.64044500    0.22581200
Ge    0.57313000    2.88452000    2.40881000     -1.655738    0.01722600    0.25022400
Ge   23.00892000    3.21631000   12.26946000     -0.822210    0.55136100   -0.11597500
Ge    0.48797000    8.94677000    2.26120000     -1.132780    0.16357900    0.21316400
Ge    0.17329000    8.87559000   12.20094000      1.549192    0.42322100   -0.40570100
Ge   23.03808000   14.69398000    2.29909000      0.572873    0.90022500    0.16825800
Ge   23.06322000   14.70323000   12.43979000      0.280198   -0.48511200   -0.38702800
Ge   23.14725000   20.45238000    2.53426000     -0.436347   -0.28378900   -0.20316400
Ge    0.15019000   20.27591000   12.15339000     -1.063126    0.08510100    0.74878400
Se    1.80812000    1.56020000    0.92956000     -0.069779   -0.76655500   -0.30732900
Se    1.27774000    1.57777000   11.55395000      0.561202   -0.62548300   -0.99197900
Se    1.71419000    7.03138000    1.57389000      0.800071    0.11695900   -0.43389400
Se    1.71773000    7.54224000   10.64513000     -1.194142   -0.06719600    0.65148700
Se    1.30519000   13.41045000    1.08685000      0.524473   -0.64088400   -0.73099900
Se    1.50276000   13.13156000   11.64429000     -0.630441   -0.14555400   -1.09497400
Se    1.20018000   18.92522000    1.09395000      0.361116    0.35478700    0.47301800
Se    1.53061000   18.76321000   10.98827000     -0.191900   -0.16474300   -0.19264100
Se    7.13161000    1.17219000    1.67074000      0.478143    0.51994200   -0.10334000
Se    7.51866000    1.28276000   10.91077000     -0.877950   -0.03000300    0.44201400
Se    7.53621000    7.26319000    0.98204000      0.142469    0.10697000    0.48755900
Se    7.21309000    7.20854000   10.73016000      0.045688    0.93154000    0.62791400
Se    7.15434000   13.09008000    1.14354000     -0.292470   -0.54681100   -0.33089400
Se    7.01618000   12.64068000   10.96742000     -0.020276   -0.06700400   -0.32546800
Se    7.05696000   19.27492000    1.34989000     -0.291736   -0.17021900   -0.15670200
Se    7.24192000   18.82598000   10.95600000      0.136255   -0.90817300   -0.26660000
Se   13.29299000    1.10547000    1.38289000      0.338816   -0.25998400   -0.32795600
Se   12.85593000    1.24116000   11.07322000      0.270108   -0.02446800   -0.29602700
Se   13.02706000    7.38657000    0.99692000      0.529988    0.18033800    0.56750700
Se   13.23643000    7.48654000   11.18340000      1.167487    0.58791500   -0.10665100
Se   13.14215000   13.17115000    0.93665000      0.259876   -0.18970000    0.10655700
Se   13.23257000   13.25755000   10.80990000     -0.579697    0.35073100    0.76798200
Se   13.03754000   18.87573000    1.25568000      0.500792    0.17239200    0.28222700
Se   12.88655000   18.92016000   10.88037000     -0.458843    0.57330000    0.54900400
Se   19.12120000    1.22680000    0.83646000     -0.598002    0.01406400   -0.00377900
Se   18.96380000    1.44536000   10.83264000      0.644728    0.59750000    0.66014900
Se   18.73149000    7.21569000    1.01661000     -0.093929    0.42660800    0.32943200
Se   18.80051000    7.05015000   11.36354000     -0.223395    0.21354400   -0.97458700
Se   18.65157000   13.30074000    1.42930000      1.384079   -1.46296600   -1.67493000
Se   18.95916000   13.19612000   11.05275000     -0.274479   -0.15877100   -0.32080600
Se   18.72441000   18.95026000    1.21054000      0.327716    0.89365500    1.17840800
Se   18.92991000   18.71363000   11.06905000      0.413889    0.41110400    0.34650800
Se    4.51002000    4.51256000    1.37456000      0.667551   -0.54812500    0.17964300
Se    4.37994000    4.18421000   11.14371000      0.520470   -0.43785900    0.36890700
Se    4.37843000    9.94395000    1.45906000      0.686068   -0.03554600   -0.17889600
Se    3.99347000    9.84947000   10.35462000      0.476632    0.79346300   -0.07095500
Se    4.24300000   16.35325000    1.77550000      0.713056   -0.87587600   -0.45523800
Se    4.41978000   15.88626000   11.13762000     -1.041039   -0.24364300   -0.02234500
Se    3.93335000   22.00010000    1.22036000      0.923984   -0.25870400    0.38176900
Se    4.54840000   21.48710000   11.02982000     -0.591080    0.28539400    0.66764000
Se   10.36569000    3.86377000    1.40739000     -0.551269    0.79473000   -0.46639400
Se   10.32844000    4.78916000   11.04830000      0.880956   -0.57529000   -0.16383800
Se   10.22721000   10.17583000    0.95753000     -0.311687    0.71870200   -0.21122100
Se   10.20559000   10.22204000   10.76360000      0.195405    0.23170100    0.15736100
Se   10.22356000   15.72603000    1.13333000     -1.100937   -0.18273500    0.12293000
Se    9.85590000   15.82135000   10.84530000      1.120224   -0.10225900    0.54923000
Se   10.03840000   21.76632000    1.06423000      0.345135   -0.32336000    0.19844400
Se    9.63737000   21.68415000   10.70355000      1.520709   -0.39530900    0.60991500
Se   15.94252000    4.28593000    1.37734000      0.924549   -0.31172400   -0.60302900
Se   16.17065000    4.31363000   10.83725000     -0.623550   -0.14939800   -0.17481200
Se   15.96562000   10.20835000    1.20448000      0.418653    0.01896200   -0.13904100
Se   15.94625000   10.48703000   11.11446000      0.850823   -0.45427100   -0.35081300
Se   15.54406000   16.07241000    1.21198000      1.044194   -0.40831900    0.54958100
Se   15.80451000   16.00070000   10.76278000      0.692323    0.05583000    0.14931800
Se   16.00532000   21.75398000    1.02366000     -0.274774    0.84968600   -0.31340800
Se   16.26343000   21.70080000   10.98423000     -0.589860    0.85944400   -0.87645700
Se   22.13160000    4.30003000    1.27581000     -0.318231   -0.68877600    0.52989000
Se   21.70524000    4.83719000   10.93543000     -0.173903   -0.58247000    0.48863700
Se   22.07747000   10.29117000    1.08721000      0.168635    0.13578100   -0.36303200
Se   21.79375000   10.43072000   11.46316000      0.281188    0.09819700   -0.72768700
Se   21.42973000   16.21840000    1.47183000      0.382339    0.08735300   -0.37812900
Se   21.64954000   15.80549000   10.89344000      0.049379    0.52859300   -0.12888900
Se   21.79837000   22.14170000    1.23383000      0.945262   -0.73709800    0.21805800
Se   21.90462000   21.85666000   11.06708000     -0.385462   -0.52068000    0.33264800
Se    1.46735000    4.28712000    8.74013000     -0.148902    0.61756600   -0.29706500
Se    1.82882000    4.23574000   18.39089000     -0.319351    0.86044500    0.06933500
Se    1.32284000   10.49242000    8.95153000      0.077007   -0.80120100   -0.38684800
Se    1.29388000   10.07129000   17.99041000      0.016738    0.80300100    0.00621900
Se    1.47370000   16.00322000    8.81270000     -0.204602    0.33177600   -0.33436900
Se    1.24426000   15.72227000   18.41018000     -0.234719    0.64641900    0.11854000
Se    1.30527000   21.57156000    8.69656000      0.073565    1.36987900    0.27140100
Se    1.84197000   21.47487000   18.54838000     -0.369985    0.64776300   -0.59568100
Se    7.59175000    4.19388000    8.83854000      0.599825    0.58303700   -0.90313700
Se    7.30633000    4.36412000   17.97976000      0.412944   -1.23572400   -0.16485100
Se    7.39896000   10.02358000    8.38760000      0.716899   -1.11965600   -0.26869300
Se    7.03750000   10.05936000   18.03713000      0.036954    0.20068100    0.48053700
Se    7.51445000   15.63247000    8.60061000      0.283890   -0.24102600   -0.38092100
Se    7.03941000   15.95894000   18.50443000     -0.696702   -0.38835600    0.80934200
Se    7.16186000   21.38720000    8.40022000      0.141915    1.24199300   -0.04571000
Se    6.84510000   21.80653000   18.19329000      0.310462    0.64699800    0.55802900
Se   12.77209000    4.35097000    8.26120000      1.415259    0.46037800   -0.03191000
Se   13.13130000    4.09656000   18.51054000     -0.187022    0.52378700   -0.37341700
Se   13.55669000   10.00050000    8.58308000     -1.032509    0.83703300    0.43476800
Se   12.72905000   10.05523000   17.88291000      0.867842    0.74273100    0.07519900
Se   12.99929000   16.08358000    8.65999000      0.481827    0.04521700   -0.44515900
Se   13.29097000   16.02169000   18.43839000     -0.462186    0.47447900    0.12237700
Se   13.09193000   21.54055000    8.59267000     -1.252603   -0.04852400    0.85948300
Se   13.26072000   21.63189000   18.28996000     -0.130991    0.17764300   -0.33193100
Se   18.74375000    4.62916000    8.17199000      0.173811    0.00475000    0.02940800
Se   18.89789000    4.63845000   18.24465000     -0.033678   -0.38058400   -0.15152400
Se   19.32155000   10.19437000    8.56593000     -0.293810    0.35823700   -0.03190200
Se   19.02783000   10.04233000   17.94062000     -0.326457    0.79327900    0.68605300
Se   18.54321000   16.03414000    8.29842000      0.045936   -0.43362700    0.41485000
Se   18.53845000   16.12293000   18.53973000      0.224708   -0.03854300   -0.52477500
Se   18.99443000   22.04405000    8.30143000      0.213254   -0.22858300   -0.10895300
Se   19.04957000   21.54265000   18.20330000      0.102543   -0.10426000   -0.23755100
Se    4.14739000    1.45628000    9.32793000      0.146725   -1.49719500   -1.05440000
Se    4.36274000    1.64357000   18.26571000     -0.140283   -0.16188300   -0.21551800
Se    4.59491000    6.88108000    8.50108000      0.057862    0.88758700    0.14480100
Se    4.61063000    7.21954000   18.39346000     -0.192052    0.38997700   -0.03970000
Se    4.41690000   13.05591000    8.36067000     -0.436380   -0.32227400   -0.46985900
Se    4.03923000   12.97097000   18.41861000      0.423220   -0.49335600    0.06322200
Se    4.76598000   18.70324000    8.59492000     -0.563061   -0.44366200    0.01570600
Se    3.98416000   18.75130000   18.41932000      0.423559   -0.07735100    0.05945800
Se   10.02689000    1.23807000    8.49691000     -0.385458   -0.09330300   -0.91962800
Se   10.44721000    1.44559000   18.33146000     -0.831124   -1.12226500   -0.38465000
Se   10.21861000    7.53455000    8.41786000      1.597746    0.70815300    1.30184300
Se   10.29073000    7.12842000   18.54229000     -0.317246   -0.53952700   -0.68330400
Se   10.29747000   12.98686000    8.51948000      0.138493   -0.29842700    0.11612200
Se    9.82966000   12.97992000   18.18438000      0.436858    0.08686600    0.13164400
Se    9.91877000   18.87172000    8.54721000      0.165796   -0.44911900   -0.01969800
Se   10.21092000   18.65900000   18.31956000      0.089249    0.48922900    0.36883600
Se   15.75872000    1.55930000    8.83418000      0.469501   -0.59140700    0.19574400
Se   15.91160000    1.19059000   18.04317000      0.791225    1.27318800    0.50792300
Se   15.78430000    7.44276000    8.75055000     -0.449109   -0.19519700   -0.60598700
Se   15.70189000    7.14299000   18.20286000     -0.904503    0.95363600   -0.78174000
Se   16.28758000   13.13321000    8.41665000     -0.220101   -0.70383100   -0.11436500
Se   16.04350000   12.89986000   18.23648000      0.131103   -0.18597900    0.17321100
Se   16.00662000   19.00645000    8.41249000      0.141177    1.01787400    0.20771400
Se   15.75091000   19.23771000   18.59058000      0.380673    0.64507100    0.06144100
Se   22.08263000    1.64835000    8.73318000     -0.548618    0.75855900   -0.35910600
Se   21.91234000    1.44817000   18.27825000     -0.210990   -0.31283900   -0.14309200
Se   21.97491000    7.34607000    8.15482000     -0.156869    0.03860700    0.05210800
Se   22.02816000    7.32943000   18.59300000     -0.165373   -0.17155900   -0.37173700
Se   21.93210000   13.20494000    8.51123000     -0.581629    0.89959000   -0.30878400
Se   21.77732000   13.39433000   17.90042000      0.214547    0.13359200    0.61400000
Se   21.39253000   18.83998000    8.75803000      0.723149   -0.17748500   -0.10054400
Se   21.77690000   18.82733000   18.23362000     -0.929627   -0.43374300   -0.71889600
Se    1.36346000    1.35814000    6.39051000      0.596940   -0.14203500   -0.00077300
Se    1.50455000    1.16109000   16.03624000     -0.835020    1.27843200   -0.80332900
Se    1.62537000    7.12421000    5.58726000     -0.079525   -0.07982400    0.84583900
Se    1.66129000    7.41033000   16.22055000      0.420101    0.62340500   -0.91538500
Se    1.24866000   13.07042000    6.03112000     -0.232858    0.25562100   -0.22755000
Se    1.25047000   13.12761000   15.84859000      0.178453   -0.91821500    0.36088100
Se    1.40973000   18.97095000    6.38926000     -0.942936   -0.89471700    0.75877300
Se    1.16326000   18.95971000   15.98790000      0.263338   -0.42273800    0.35998400
Se    7.06007000    1.47016000    6.21892000      0.866360   -0.24548700   -0.26580200
Se    7.26696000    1.22470000   15.75834000      1.160432   -0.14686300    0.40012300
Se    7.43349000    7.35580000    5.97283000     -0.669283   -0.28498600    0.21741900
Se    7.25172000    7.05489000   15.76569000      0.801467    0.77058600   -0.35095800
Se    7.21671000   13.20521000    6.19103000      0.932716   -0.61636000    0.25696800
Se    6.97676000   12.96193000   15.63085000      0.751768   -0.68462700    0.53023200
Se    6.99542000   18.60524000    6.07617000      0.409411    0.00420800   -0.33914100
Se    7.25608000   18.75216000   16.10902000     -0.859599   -0.63228300    0.52248600
Se   13.44592000    1.62205000    6.50397000     -1.218263    0.54375000   -0.86996500
Se   13.26299000    1.60157000   15.85247000     -1.226950   -0.43390500    0.23857200
Se   13.11707000    7.54560000    6.36170000     -1.357394   -0.23543700   -0.16715000
Se   12.84006000    7.30765000   15.42991000      0.495956   -1.04032300    1.23292800
Se   12.97244000   12.98148000    6.35209000      1.056156    0.38665000   -0.13387900
Se   13.36696000   12.96371000   15.65959000     -0.270245    0.62193000    0.10564100
Se   12.71102000   19.19347000    6.26626000      1.096263   -0.20098800    0.00377000
Se   12.79229000   18.94752000   16.03675000      0.304115   -0.53892300    0.13432700
Se   19.17693000    1.38846000    5.90691000     -0.699501    0.16977200    0.28887900
Se   18.57700000    1.33917000   15.98414000      1.365405    0.44406100   -0.03153400
Se   19.07051000    7.57758000    5.69837000      0.135384   -0.37849400    0.08200400
Se   18.95896000    7.72300000   15.85016000      0.578246    0.03072300   -0.21993200
Se   18.91756000   12.89797000    5.78162000     -0.763901    0.92113300   -0.36181500
Se   18.71293000   13.28983000   15.91357000     -0.332413    0.46244400   -0.50616500
Se   19.08893000   18.29325000    6.00065000     -0.770708    1.73695600   -0.81751900
Se   18.89563000   19.06485000   15.84925000     -0.678816   -1.15105600    0.68842900
Se    4.48722000    4.30174000    6.40704000     -1.292377   -0.47520500   -0.34757300
Se    4.33226000    4.33017000   15.85673000      0.226972   -0.69420800   -0.94917700
Se    4.33920000   10.24647000    6.20439000     -0.753912    0.03460300    0.22702900
Se    4.65184000   10.25466000   15.71770000     -0.252061    0.02605300    0.18991500
Se    4.33565000   15.87388000    6.30399000     -1.089396    0.14037800   -0.40143000
Se    4.25174000   15.72511000   16.05865000     -1.333248    0.31408500   -0.36849300
Se    4.48928000   21.77693000    6.55804000     -0.291775   -0.58922900   -0.61277900
Se    4.39142000   21.93529000   15.57187000     -0.086536   -1.07766800    0.07764600
Se   10.24971000    4.37242000    6.39923000     -0.520958   -0.83851200   -0.94382000
Se   10.13511000    4.59024000   15.24694000      0.556823   -0.22221700    0.73681200
Se   10.16982000   10.37545000    5.75832000      1.127419    0.62651200    0.85857700
Se   10.19156000    9.85455000   15.76702000     -0.786982    0.72753300    0.30267000
Se   10.31333000   16.17790000    5.75862000     -0.371213   -0.12829600    0.61837200
Se    9.88533000   15.85026000   15.87080000      0.756905    0.75105900    0.84008700
Se    9.86312000   21.39440000    5.97518000      0.555733    0.00264300   -0.31253500
Se   10.25177000   21.28342000   16.34483000     -0.328085    0.65088600   -0.31481600
Se   16.01753000    4.72620000    5.73792000     -0.095838   -0.38587700    0.20257300
Se   15.95260000    4.09564000   15.75947000     -0.278618    1.51572200    0.69804100
Se   16.12511000    9.99493000    5.85745000     -0.233886    0.79311400    0.63827500
Se   16.06248000    9.81901000   15.79186000      0.858049    1.28262400    1.30579900
Se   15.70179000   16.51571000    5.67939000     -0.236165   -0.44142900    0.53821500
Se   16.07785000   16.48030000   15.73723000     -0.273129    0.69259100    1.04113700
Se   16.10486000   21.78151000    6.35137000     -1.414594    0.36873500    0.09710800
Se   15.81939000   21.57343000   15.28110000      0.301320    0.61213000    0.89716300
Se   21.91315000    4.17904000    6.25478000     -1.048778    0.17858300   -0.89937400
Se   21.57905000    4.58874000   15.73576000      0.848234    0.88030200    1.11554800
Se   21.96461000   10.43872000    5.82713000     -0.334738   -0.09888300    0.14050100
Se   21.71215000   10.62605000   15.54833000      0.948354    0.10392500    0.34509700
Se   21.72417000   15.43611000    6.33391000      1.101299    0.23712700   -0.08603600
Se   21.69382000   15.97258000   15.75452000     -0.464552   -0.00796800   -0.08679800
Se   21.90487000   21.92377000    6.13990000      0.051182   -0.60253300   -0.10006000
Se   22.04451000   22.15247000   15.62654000     -1.356951   -0.69129200    0.11524500
Se    4.31491000    1.19517000    3.88270000     -0.239489    1.12884700    0.24287900
Se    4.09481000    1.32083000   13.48981000     -0.152776    0.09371100    0.12926200
Se    4.59391000    7.22679000    3.86945000      0.324465   -0.06064600   -0.27841600
Se    4.58936000    7.16377000   13.27874000      0.101264    0.50828400   -0.06479400
Se    4.21194000   12.86866000    3.84329000      0.184894   -0.21379400   -0.37453100
Se    4.20981000   12.96992000   13.27123000     -0.990766   -0.23999000    0.95678600
Se    4.30705000   18.82500000    3.90471000     -0.073698   -0.20421500    0.04778000
Se    4.18846000   18.39247000   13.42142000      0.411072    1.23529100    0.31438500
Se   10.55848000    1.38896000    4.13454000     -1.038196   -1.32841000    0.89486900
Se   10.41147000    1.48220000   13.39952000      0.439339   -0.34284800   -0.26001400
Se   10.43858000    7.30473000    3.69309000     -0.058488    0.67307200   -0.22063500
Se   10.20367000    7.23530000   13.51609000      1.265956   -0.54265900   -1.63349700
Se   10.24462000   12.99652000    3.65616000     -0.519670   -0.78215100    0.19748100
Se   10.29465000   13.14444000   13.77707000      0.829677   -0.41732400   -0.93352100
Se   10.02349000   18.58955000    3.34072000     -0.594574   -0.47996900    0.55133500
Se   10.27093000   18.69483000   13.26912000     -0.661047    0.06094500    1.17173900
Se   16.13504000    1.38105000    3.63596000      0.005391   -0.07176100    0.05163200
Se   15.83048000    1.37564000   13.31791000      0.243437    1.02712300   -0.27752900
Se   16.19532000    7.23923000    3.72093000     -1.421425   -0.73954600    0.84457900
Se   15.59900000    7.40551000   13.12662000      0.048342   -0.38270600    0.75681500
Se   15.82256000   12.86578000    3.95857000      0.178680    1.36429700   -0.53355200
Se   16.12825000   13.43623000   13.64441000      0.509470   -0.91832100   -0.92342500
Se   15.72634000   19.36061000    3.80741000      0.329431   -0.35586100   -0.43359500
Se   15.70183000   19.10216000   13.06390000     -0.347908   -1.48978300   -0.11814200
Se   22.01446000    1.36073000    3.48535000      0.449626    1.09221100   -0.00351300
Se   21.73572000    1.70226000   13.60774000     -0.111359    0.06467300    0.19539900
Se   22.31608000    7.45993000    3.60631000     -0.870633    0.84002100   -0.24487200
Se   22.06297000    7.54680000   13.57525000     -0.267218   -0.73247800    0.22656700
Se   21.62953000   13.19503000    3.25986000     -0.564266   -0.87996300    1.05347700
Se   21.83891000   12.99558000   13.60242000     -0.435052    1.10144200   -0.08617100
Se   21.70560000   18.99727000    3.85243000      0.196054    0.11047900   -0.29544900
Se   21.51445000   18.93141000   13.16648000      0.294494    0.86622900    0.30144400
Se    1.93856000    4.47616000    3.62084000     -0.325646   -0.98414100    0.32035400
Se    1.36686000    4.65917000   13.28590000      0.334763   -0.16887800    0.55119100
Se    1.53463000   10.54419000    3.67254000      0.660707   -0.90625700   -0.13026500
Se    2.02347000   10.17597000   13.40165000     -1.358439    0.28059200   -0.75488200
Se    1.63374000   15.94936000    3.48391000     -0.982423    0.62353600   -0.39379600
Se    1.30015000   16.27388000   13.34363000      0.771004   -0.50283800    0.96279600
Se    1.46407000   21.62000000    3.92340000      0.460229    0.27377700    0.18676200
Se    1.64009000   21.50842000   13.56328000     -0.563261    0.74144200   -0.52824800
Se    7.58490000    4.28858000    3.62481000     -0.648874   -0.42699200   -0.04282700
Se    7.13289000    3.97036000   13.67676000     -0.282531    0.51797400   -0.60226300
Se    7.57770000   10.25452000    3.33678000     -0.325132   -0.54695900    0.22835100
Se    7.33112000   10.18388000   13.01194000     -0.175319   -0.12236100   -0.16855300
Se    7.01973000   15.75096000    3.86407000      0.275717   -0.36841300   -0.37223400
Se    7.20045000   15.81470000   13.38307000     -0.349346    0.19965700   -0.47498300
Se    7.07323000   21.65317000    3.66455000      0.625847    0.41062500    0.43975100
Se    7.30465000   21.42279000   13.82596000     -0.249564    0.25810100   -0.38252800
Se   13.12507000    4.29182000    3.62673000     -0.299141   -0.59164100   -0.16826100
Se   13.21894000    4.80479000   12.78309000      0.988539   -0.62255600    1.51479300
Se   13.13557000   10.40626000    3.76409000     -0.303389   -1.13395300   -0.69155700
Se   12.85442000   10.36347000   13.76079000     -0.849353    0.55648500   -1.45003000
Se   12.79869000   15.92129000    3.80908000      0.434517   -0.47333800   -0.30564600
Se   13.18460000   16.20357000   13.42565000     -0.503142   -0.53670600   -0.17193700
Se   12.45684000   21.98097000    3.91262000      0.545102   -1.11083100   -0.39587100
Se   12.77770000   21.97002000   13.29209000      0.378182   -0.96136900    0.41475300
Se   19.01149000    4.15465000    3.42528000     -1.086074    0.99001700   -0.99677700
Se   18.93167000    4.54215000   13.43854000     -0.490408   -1.45539000   -0.02146000
Se   18.91535000   10.49869000    3.43038000     -0.208340   -1.35726300   -0.50113800
Se   18.76597000   10.37065000   13.23760000     -0.469095   -0.48182600   -0.25456000
Se   18.69431000   15.94114000    3.68494000     -0.687464    1.36006100   -0.22701300
Se   18.62679000   16.23301000   13.44989000      1.034063   -0.11813100    0.18976400
Se   19.04854000   21.94188000    3.64544000     -0.200191   -0.14263900    0.17091900
Se   18.81241000   21.92363000   13.62051000     -0.682835    0.16890400   -0.75937500
