384
23.23808000 23.23808000 19.51320000
Ge    5.93231000    5.44049000    9.83653000     -0.751322    0.04023000    0.40502200
Ge    6.02453000    5.69705000   19.42764000      0.851666   -0.91092300    1.08751700
Ge    5.76341000   11.35877000    9.23917000     -0.847434   -0.21081000    1.18439000
Ge    5.53902000   11.41678000   19.50022000      0.462837    0.42014900    0.96679500
Ge    5.97291000   17.06619000    9.76669000      0.301364    0.49706100    0.79050900
Ge    5.65822000   17.52873000    0.40852000      0.857847    0.57463800   -1.59307200
Ge    5.95449000   23.08027000    9.93031000     -0.519268   -2.68747700   -0.37170100
Ge    5.76044000    0.17101000    0.05591000     -0.725620   -0.10463100   -0.20928200
Ge   12.15784000    5.84066000    9.83611000     -2.655798    1.57674200    1.03975800
Ge   11.71748000    5.59742000    0.09582000     -1.052053    0.31104800    0.76832100
Ge   11.91473000   11.58647000    9.74753000      0.281873   -0.39124500   -0.15613500
Ge   11.63934000   11.65066000   19.28918000      0.476788    0.14252000   -0.53940000
Ge   11.32813000   17.41884000    9.86102000     -0.027019    0.32447600   -0.11026400
Ge   11.73354000   17.33864000    0.08343000     -0.499202   -0.27160300    0.13541200
Ge   11.22457000   22.97451000    9.68553000      1.185587    0.09043400    0.03549000
Ge   11.69838000   23.12903000    0.12376000      0.277865   -0.21444600   -1.09408600
Ge   17.46619000    5.99685000    9.57876000      0.925858   -1.03619500    1.65313800
Ge   17.22408000    5.82313000   19.46418000     -0.400789    0.62086900   -0.49410200
Ge   17.63825000   11.53301000    9.66229000     -0.489119    1.23980200    0.58835700
Ge   17.71675000   11.47832000   19.43048000     -0.600390    0.67817300   -0.13409100
Ge   17.36657000   17.70556000    9.75369000     -1.343848   -2.12765100   -0.96856400
Ge   17.04507000   17.57323000    0.26721000      0.210879    0.49568700   -0.42471100
Ge   17.34359000    0.13340000    9.67423000      1.522924   -0.06102300    0.47453600
Ge   17.54788000   23.00262000   19.29179000      0.548808    1.33629300   -1.19594800
Ge    0.10161000    6.06752000    9.65371000      0.048746   -1.76360600    0.19144700
Ge    0.46182000    5.68536000    0.13136000     -0.259875   -0.11038700   -0.74499400
Ge   23.09756000   12.06763000   10.04250000      1.215692   -1.30272800    0.96052800
Ge    0.08951000   11.83613000   19.13266000     -0.075806    0.62889100    0.06004800
Ge   23.14087000   17.45517000    9.84077000     -1.057646   -1.99757700   -0.63559900
Ge   23.08658000   17.38535000    0.15348000     -0.675513    0.65720400   -0.92050500
Ge    0.16410000    0.05883000    9.92542000     -0.018427    0.60236400    0.51956800
Ge    0.35175000   23.23545000   19.30277000     -0.665455   -0.89734100    1.09559800
Ge    2.74790000    5.76719000    7.34289000      0.662300    0.01166600    0.01516500
Ge    3.22351000    5.95542000   17.06665000     -0.584332   -1.73973000    0.78055900
Ge    2.70100000   11.74766000    7.36876000      0.623857   -0.06335200   -1.45529700
Ge    2.79294000   11.43529000   16.79823000     -0.015335    1.24758100    0.25822700
Ge    2.99849000   17.35953000    7.39741000     -1.203032    0.98011000    1.30571200
Ge    2.43649000   17.23269000   17.20253000      1.014318    1.14108100   -1.05558500
Ge    2.87519000   23.09330000    7.86999000      0.809040    0.44428800   -1.68112800
Ge    3.06209000   23.18764000   17.23267000     -0.358725    0.85078000   -0.69781800
Ge    8.94159000    5.98157000    7.48769000     -0.844279   -0.27705700   -0.57813700
Ge    8.92682000    5.80800000   16.91942000     -0.301110   -0.42777700   -0.07196700
Ge    8.78113000   11.60521000    7.36254000     -0.642568   -0.34826400   -0.90837000
Ge    8.44128000   11.40715000   16.80938000      2.020085    1.07001000   -0.13286500
Ge    8.71731000   17.29283000    7.14623000      0.000434   -0.20577000    0.43684200
Ge    8.69408000   17.22581000   17.34216000     -1.048638   -0.03929500    0.54757300
Ge    8.49634000   22.89779000    7.22798000      0.590332    0.65612500   -0.40373400
Ge    8.75643000   22.90961000   17.22063000      0.158952    1.59065400    0.06645500
Ge   14.43604000    5.93640000    7.34983000      0.571737    0.39287700   -0.27849900
Ge   14.24223000    5.58222000   16.85905000      0.765168    0.45112900    0.68739700
Ge   14.81849000   11.58372000    7.32968000     -0.732653    1.00975200   -1.05312200
Ge   14.60992000   11.37334000   16.98141000      0.917321    0.14088900    0.46501700
Ge   14.33373000   17.67572000    7.26445000     -0.781287   -0.18812300    0.39049800
Ge   14.63607000   17.64172000   17.15030000     -2.533343    1.08057400    1.50656900
Ge   14.55370000   23.14545000    7.60315000      0.436042   -1.02120300   -0.12275300
Ge   14.57824000   22.95013000   16.81643000      0.113202    0.13202300    0.11374300
Ge   20.42256000    6.02426000    6.88997000      0.175783   -0.77292400    0.77646500
Ge   20.39807000    6.23612000   17.25222000      0.102475   -0.11356000   -0.81367700
Ge   20.41723000   11.79458000    7.22457000      0.100643    0.87444200   -1.03810200
Ge   20.24773000   11.88427000   16.83103000     -0.041400    0.86252700    0.07472900
Ge   20.45960000   17.11001000    7.50002000     -0.697933   -0.31073700   -0.83992800
Ge   19.94714000   17.38835000   17.12753000      2.590359   -0.47500800    0.61337800
Ge   20.74515000    0.25621000    7.39427000     -1.718026   -1.23782400   -0.11698400
Ge   20.30751000    0.01442000   17.02316000     -0.528564   -0.09787500   -0.19656200
Ge    2.96757000    2.91404000    5.19377000      0.084024   -1.15634200   -0.26319900
Ge    2.63065000    2.88069000   14.50165000      0.483035    0.39507600    0.79749300
Ge    3.03637000    8.84769000    4.66643000     -0.301721    0.28759000    0.50357900
Ge    3.21736000    8.60044000   14.68472000     -0.956219    0.24650400   -0.70177400
Ge    2.80632000   14.59975000    4.95980000      0.018682   -0.89827800   -0.02459600
Ge    2.77479000   14.48022000   14.50800000     -0.842855    1.12299300    0.67721300
Ge    2.98978000   20.14609000    5.22420000     -0.381149    2.38205700    0.63223500
Ge    2.87680000   20.07459000   14.83137000      0.260059   -0.16970100    0.03397200
Ge    8.80981000    2.86497000    5.05367000      0.173776    0.05851300   -0.15207300
Ge    8.84927000    2.69280000   14.71658000      0.085234   -0.19422900    0.53399500
Ge    8.81340000    8.83431000    4.69480000      0.290103   -1.19430000    1.01715500
Ge    8.55139000    8.67468000   14.42237000      0.570869   -0.69699200    0.44687300
Ge    8.81407000   14.52068000    4.91081000      0.498679   -1.35707800    0.41207800
Ge    8.56551000   14.44133000   14.69801000      1.856764    0.83890000   -0.56775200
Ge    8.37518000   19.96189000    4.75492000      0.902160    0.67125000   -0.73255600
Ge    8.72802000   20.02289000   14.96231000      0.910198    0.33061900   -0.74889700
Ge   14.71941000    2.96481000    4.87401000     -0.247879   -0.26359300   -0.01650100
Ge   14.41132000    3.14058000   14.30166000      1.373610   -0.94513700    0.32596800
Ge   14.42116000    8.64216000    4.74009000      0.384289   -0.03118300    0.10948600
Ge   14.40761000    8.76347000   14.49791000     -0.212996    1.18856100    1.13923600
Ge   14.36883000   14.55694000    5.02095000     -1.028154   -1.08278700    0.54169200
Ge   14.68714000   14.83821000   14.78065000      0.010085    0.37061800   -0.41724000
Ge   14.19343000   20.84028000    5.00332000     -0.395508   -1.26515600   -0.17826200
Ge   14.06375000   20.15650000   14.57870000      0.352978    0.26180400   -1.35797500
Ge   20.56471000    2.77100000    4.64421000     -0.161713    2.31949600    0.80422400
Ge   20.05039000    3.02020000   14.88877000     -0.690631   -0.05277700   -1.24834000
Ge   20.65772000    9.12336000    4.40207000     -0.134946   -0.81370300    0.99798400
Ge   20.45843000    9.15464000   14.28464000     -1.000012   -0.09027100    1.10516800
Ge   20.27088000   14.60407000    4.72991000      0.224986   -0.31114600    0.25823300
Ge   20.12743000   14.55790000   14.35794000      0.425446    0.67166500    1.45637300
Ge   20.26726000   20.39093000    5.19426000      0.061220    0.28505800   -0.34726900
Ge   20.53233000   20.52077000   14.68224000      0.343050   -0.38749200   -0.34213300
Ge    5.74975000    2.87835000    2.82392000     -1.038756   -0.54906300   -0.49437000
Ge    5.91918000    2.42043000   12.42947000     -0.486438    0.34315100   -1.19715100
Ge    6.20878000    8.49734000    2.54405000     -1.270539    0.14669900    0.05117800
Ge    5.66359000    8.85937000   11.76632000      0.373867   -0.18361000    0.19219500
Ge    5.54419000   14.37192000    2.53305000      1.450006   -0.45802400    0.13541600
Ge    5.84069000   14.24143000   12.23937000     -0.259781    0.16757700    0.04167800
Ge    5.28793000   20.47884000    2.54660000      1.080241    1.07096900   -0.20899700
Ge    5.80649000   19.89051000   12.47007000      0.283361    1.18293200   -0.53762000
Ge   11.90983000    2.51263000    2.63088000     -1.269907   -0.04058500   -0.49518900
Ge   11.76395000    3.00912000   12.26087000     -0.583902    0.71184400   -1.08900100
Ge   11.65717000    8.79747000    2.27392000     -0.400675    0.62387300    1.07145300
Ge   11.45512000    8.87132000   12.22041000      1.237429   -0.59246100    1.23755100
Ge   11.65209000   14.26837000    2.35636000     -1.423996   -1.00708200    0.59644700
Ge   11.59190000   14.74354000   12.21825000      0.311519   -0.11452600    0.10041400
Ge   11.51201000   20.23296000    2.33566000     -1.694113   -0.02025000    0.90431000
Ge   11.37237000   20.53253000   12.12316000     -0.646294   -1.05800300    0.70566300
Ge   17.65793000    2.66548000    2.13774000      0.112928    0.45345600    0.17572300
Ge   17.47210000    2.82606000   12.18740000     -0.008509    1.68805900   -0.25659000
Ge   17.37785000    8.79571000    2.39337000      0.398063   -0.58692500   -0.00372000
Ge   17.30196000    8.90086000   12.13973000      0.028147   -0.53597400    0.28610100
Ge   16.98175000   14.46331000    2.48042000      1.551440    0.24948400    0.08831100
Ge   17.43966000   14.80861000   12.09188000     -0.055734    0.32124400   -0.44829200
Ge   17.48263000   20.66514000    2.48473000      0.106991   -0.74196800    0.61433400
Ge   17.66611000   20.37992000   12.32183000     -1.262101   -0.23755600   -0.99396100
Ge    0.39807000    2.82966000    2.42570000      0.122450   -0.16279500   -0.10331700
Ge   23.02730000    3.14291000   12.13435000     -1.177835   -0.00266700    0.67255600
Ge    0.42014000    8.99014000    2.18912000     -1.327002    0.20026300    0.11505500
Ge    0.30405000    8.80669000   12.24588000      0.287179    0.19004700   -0.08490400
Ge   23.07162000   14.69408000    2.33551000      0.469616    0.70089900    0.20907100
Ge   23.17661000   14.62350000   12.32781000      0.334550    0.88995800    0.38226500
Ge   23.17409000   20.42026000    2.62418000     -0.623277   -0.95108600   -0.37168600
Ge    0.19723000   20.24612000   12.01052000     -1.567401    1.01658200    1.23837500
Se    1.79414000    1.52656000    0.92783000     -0.049582   -0.03818500    0.29149500
Se    1.30418000    1.46672000   11.53341000      0.678187   -0.43799800   -0.76741700
Se    1.73283000    7.20595000    1.45928000      1.144498   -0.12794400   -0.41842800
Se    1.66354000    7.54278000   10.49939000      0.017539    0.58093000    1.26917100
Se    1.34719000   13.41114000    1.07468000      0.465680   -0.49271500   -0.48469200
Se    1.52165000   13.11100000   11.53610000     -0.052646   -0.48261500   -1.20812600
Se    1.31848000   18.99519000    1.17772000      0.075566   -0.09348500    0.19032400
Se    1.44438000   18.58475000   11.03293000      1.496315    0.27484700    0.09866000
Se    7.09800000    1.26343000    1.69808000      0.574597   -0.17690900   -0.68765000
Se    7.44940000    1.20732000   10.94640000      0.662809    0.81539600    0.97515800
Se    7.53056000    7.27662000    1.02822000      0.291029   -0.30610900   -0.11171800
Se    7.17561000    7.26498000   10.72745000      0.326442    0.21633600    0.40230400
Se    7.01195000   13.07042000    1.17944000     -0.349668   -0.48843800   -0.31774100
Se    6.99357000   12.59787000   11.05879000      0.608568   -0.56645300   -0.64798500
Se    7.06064000   19.37802000    1.34075000     -0.973979   -0.93983500   -0.19542300
Se    7.31108000   18.77706000   10.86076000      0.003747   -0.12901700    0.63537000
Se   13.29815000    1.10060000    1.37875000      0.498166    0.02363100   -0.23812800
Se   12.71747000    1.17000000   11.00877000      0.560365   -0.09268700   -0.16964600
Se   13.10122000    7.39537000    1.09016000      0.357781   -0.53332900   -0.31721100
Se   13.26415000    7.47873000   11.21992000     -0.035248    0.01344100   -0.36070800
Se   13.13026000   13.08681000    1.03850000      0.751291   -0.77940200   -0.60741000
Se   13.20631000   13.38088000   10.77099000     -0.646659   -0.17992600    0.50768500
Se   13.06646000   18.89639000    1.31743000      0.870906   -0.30649300   -0.21299100
Se   12.84693000   19.03251000   11.00347000     -0.445079   -0.73204900   -0.35277500
Se   19.18896000    1.18063000    0.76004000     -0.788123    0.76360400    0.77273200
Se   18.90365000    1.64847000   10.78181000      0.399690   -0.70495000   -0.23817600
Se   18.77730000    7.21765000    1.06865000     -0.073179    0.81054100    0.42027900
Se   18.79541000    7.16961000   11.44105000     -0.300269    0.10420100   -1.11367800
Se   18.71963000   13.23842000    1.34806000     -0.022906   -0.06167200   -0.39536100
Se   18.90756000   13.18173000   11.03828000     -0.041181    0.03562100   -0.22466500
Se   18.67032000   18.78326000    1.37356000      0.441105    0.88069000    0.71578500
Se   18.90453000   18.76793000   10.96420000      1.526778    1.05246100    1.17950400
Se    4.50086000    4.55778000    1.48533000      0.383571   -0.29992600   -0.26750900
Se    4.51930000    4.13275000   11.32302000      0.426902   -0.10076800   -0.31713800
Se    4.45937000    9.84674000    1.46901000      0.111155    0.15777400   -0.38096200
Se    4.00303000    9.75322000   10.22103000      1.227783    1.16513300    0.44416200
Se    4.31541000   16.18074000    1.76370000     -1.082850    0.31368800   -0.21314100
Se    4.49268000   15.79670000   11.10534000     -0.659336    0.28752500   -0.40615300
Se    3.96280000   22.09348000    1.19525000      0.739403   -0.49152900    0.41975600
Se    4.46433000   21.37280000   10.93809000      0.724051    0.17247100    0.79061500
Se   10.35785000    3.84906000    1.39835000      0.179860    0.92704400   -0.56006600
Se   10.34988000    4.58005000   10.95982000      0.620959   -0.27998300   -0.06385300
Se   10.20941000   10.32013000    0.99504000     -0.334192   -0.85766500    0.83473000
Se   10.21339000   10.09995000   10.78153000     -0.163191    1.11687100   -0.73129800
Se   10.31441000   15.63571000    1.04622000     -0.718950    0.84432400   -0.34313800
Se    9.81640000   15.69683000   10.76639000      1.151824    0.33990400    0.45108900
Se   10.06962000   21.69437000    1.05690000      0.128055   -0.02486900    0.11272200
Se    9.68247000   21.60548000   10.81717000      0.136098   -0.23907400    0.27014100
Se   16.03318000    4.38099000    1.41132000      0.217673   -0.76137100   -0.23016500
Se   16.08466000    4.34538000   10.73832000      0.290595   -0.02241000    0.09220000
Se   16.00733000   10.40475000    1.26246000      0.115388   -0.26412700   -0.24496000
Se   15.91560000   10.53791000   11.10865000      0.532253   -0.09449500   -0.56183100
Se   15.65488000   16.08890000    1.41842000     -0.953533   -0.30180000    0.23965000
Se   15.85389000   16.08153000   10.82097000      0.389789    0.07721700   -0.11075600
Se   16.04247000   21.85509000    0.97581000     -0.959385   -0.74909800    1.41560400
Se   16.18681000   21.73826000   10.87659000     -0.118200   -0.41396600    0.61909500
Se   22.23893000    4.32064000    1.30628000     -1.145883   -0.00697800    0.13952500
Se   21.74504000    4.69153000   10.80401000     -0.036478   -0.17645000    0.36445900
Se   22.05083000   10.48302000    1.07720000     -0.182640   -0.78206000    0.33817700
Se   21.97390000   10.43812000   11.45256000     -0.411667   -0.21030700   -0.47767700
Se   21.46695000   16.21488000    1.50215000      0.478969    0.24926500   -0.35959800
Se   21.66918000   15.64043000   10.86504000      0.213681    1.10218500   -0.44413000
Se   21.96063000   22.05691000    1.29100000      0.528420   -0.00491100   -0.14220800
Se   21.93225000   21.92011000   11.03194000     -0.584551   -0.96241000    0.56001200
Se    1.41269000    4.28651000    8.69958000      0.113089    0.49219600   -0.34210600
Se    1.89448000    4.21412000   18.45004000      0.209608    1.37710600   -0.49488800
Se    1.44191000   10.53523000    8.83726000     -0.867680   -0.67068000    0.37137900
Se    1.26030000   10.05145000   17.93933000     -0.241661    0.09237400    0.46284500
Se    1.42617000   15.92494000    8.70382000      0.105066    0.52315900   -0.30265100
Se    1.15660000   15.71600000   18.28060000     -0.993171   -0.12539700    1.02499500
Se    1.29363000   21.62886000    8.76958000      0.172899   -0.36247100   -0.09496400
Se    1.77278000   21.52249000   18.38342000     -0.422092    0.71431600   -0.10998900
Se    7.56743000    4.22765000    8.71432000      0.558823    0.26096800   -0.61951000
Se    7.36064000    4.28122000   17.99656000      0.135855   -0.23896200    0.22777900
Se    7.42901000    9.94165000    8.30552000     -0.524817   -0.37646400    0.36087900
Se    7.01427000   10.21732000   18.06672000     -0.691502   -1.81442700    0.86404900
Se    7.42393000   15.72408000    8.56438000      0.481172   -0.66968200   -0.51518500
Se    7.02369000   15.90098000   18.57132000      0.114661    0.75839900    0.27066100
Se    7.20215000   21.42784000    8.45632000     -0.685647    0.61293700    0.72820700
Se    6.89932000   21.76952000   18.11026000     -0.347164    0.16532800    0.87451100
Se   12.86234000    4.33663000    8.33385000      1.151949   -0.77736100   -0.80270900
Se   13.04488000    4.06669000   18.51969000      0.526882    0.18608000   -1.21019400
Se   13.61003000   10.06796000    8.53440000     -1.678968   -0.03952700    1.20128600
Se   12.75288000   10.09693000   17.80372000      0.365840    0.22173100    0.35136300
Se   12.94207000   16.08847000    8.71565000      0.698617    0.22544500   -0.65731200
Se   13.24285000   16.05371000   18.37577000      0.471562   -0.42106400   -0.54754000
Se   13.05064000   21.53897000    8.61683000     -0.520958    0.93592600    0.26500900
Se   13.19590000   21.58406000   18.29947000     -0.324956    0.48009900   -0.06440600
Se   18.79446000    4.63067000    8.22621000      0.759391    0.30543900   -0.50261900
Se   18.88952000    4.65984000   18.16754000     -0.327555   -0.51590000    0.21528900
Se   19.25565000   10.24789000    8.47446000     -0.652928   -1.08317700    0.68573900
Se   19.00045000   10.15631000   17.74916000     -0.717998   -0.47914300    1.33875200
Se   18.47452000   16.04260000    8.28230000      0.193743   -0.09021900    0.51859300
Se   18.40475000   16.12612000   18.52624000      0.672634   -0.56050700   -0.58274900
Se   18.86678000   21.96279000    8.41004000      0.612078    0.82918500   -0.35258100
Se   18.93231000   21.51106000   18.06854000      0.269764    0.30371500   -0.21005900
Se    4.24838000    1.24577000    9.30033000     -0.886523    0.81941600   -0.77060300
Se    4.39695000    1.79525000   18.17155000      0.382660   -1.33667200    0.32316000
Se    4.50854000    6.91446000    8.58412000     -0.316322    0.16330400   -0.24273100
Se    4.73432000    7.23291000   18.35111000     -0.810522    1.08626400   -0.56996000
Se    4.45079000   13.05675000    8.23083000      0.336008    0.69532200    0.12159000
Se    4.07630000   12.86257000   18.42810000     -0.671618    0.12559400   -0.67786400
Se    4.79685000   18.64417000    8.55670000     -1.474707    0.26401200   -0.57597500
Se    3.87703000   18.73997000   18.41164000      0.669503   -0.38888400    0.48881000
Se    9.94740000    1.21044000    8.43068000     -0.210783    0.08722500   -0.46104200
Se   10.41833000    1.33535000   18.19700000     -0.680464   -0.57448500    0.00373900
Se   10.24045000    7.60305000    8.50218000      0.817762   -0.78979500    0.54776400
Se   10.13335000    7.14966000   18.44240000      0.655991   -0.38220700    0.11953800
Se   10.26373000   12.87704000    8.52525000      0.743948    0.93472400    0.64246200
Se    9.93344000   12.86482000   18.20025000     -0.482612    0.57877500   -0.33328400
Se    9.84412000   18.85147000    8.55793000      0.290111   -0.04194500    0.07185000
Se   10.25982000   18.70874000   18.34468000     -0.176394    0.31662200    0.26947000
Se   15.71834000    1.50876000    8.78639000      0.145748    0.91614000    0.18474000
Se   15.88631000    1.19517000   18.13657000      0.731467   -0.10837400    0.16889400
Se   15.93641000    7.49356000    8.85393000     -1.352244    0.21713200   -1.09289400
Se   15.57302000    7.24535000   18.23050000      0.384275   -1.07241800    0.03539300
Se   16.29848000   13.13010000    8.37069000      0.157700   -0.28217700    0.13349300
Se   16.01245000   12.89185000   18.26236000      0.131526   -0.52098100    0.14422700
Se   16.02717000   19.03083000    8.40075000     -0.764661    0.64252200   -0.41408900
Se   15.64303000   19.15486000   18.69867000      0.089140    0.18124700   -0.46400100
Se   22.01693000    1.59147000    8.77699000      0.100971    0.95641900    0.07305900
Se   21.98758000    1.34126000   18.16435000     -0.250595    0.61821700   -0.03338900
Se   22.06006000    7.28779000    8.24672000     -1.016705    1.26118500   -0.99694100
Se   22.09772000    7.25794000   18.66755000     -0.116402    0.22010900   -0.35738500
Se   21.90395000   13.27984000    8.49447000     -0.772946    0.69249100   -0.45015600
Se   21.77442000   13.35146000   17.94353000      0.306445   -0.39541100    0.59519200
Se   21.46243000   18.77122000    8.79757000      0.524478    0.59078100   -0.00817100
Se   21.58731000   18.97931000   18.40392000     -0.062992   -1.50844900   -0.12736900
Se    1.42527000    1.39935000    6.35896000      0.633892   -0.22583500    0.46594700
Se    1.42613000    1.27666000   15.88721000     -0.101817    0.14424300   -0.04777500
Se    1.70769000    7.08080000    5.52352000     -0.908559   -0.58145700    1.02017800
Se    1.64945000    7.43017000   16.18669000     -0.017665    0.37105600   -0.72882300
Se    1.21260000   13.11444000    6.06311000      0.499191    0.26930700   -0.08015100
Se    1.19305000   13.05659000   15.72340000      1.018459   -0.16701100    0.03060500
Se    1.38411000   18.97760000    6.42042000      0.307344   -0.87429600    0.50879500
Se    1.13037000   19.03861000   15.96442000      0.231559   -1.01981800    0.64799200
Se    7.20774000    1.45092000    6.21370000      0.013049    0.02286700   -0.24549200
Se    7.38498000    1.17818000   15.82210000      0.685127   -0.25609300    0.40428900
Se    7.42152000    7.30907000    5.98989000      0.020286   -0.23339900    0.29315400
Se    7.28490000    7.00488000   15.71716000     -0.067327    0.74435200   -0.31052200
Se    7.28253000   13.14336000    6.34946000      0.641935    0.39935400   -0.42860200
Se    7.08816000   12.98414000   15.58935000     -0.837145   -0.82239700    0.69620500
Se    7.01231000   18.65541000    6.14647000     -0.010708   -0.23857500    0.00175200
Se    7.25050000   18.72142000   16.17175000     -0.729201   -0.39534400    0.25499700
Se   13.40844000    1.57629000    6.46255000     -1.099464    0.84563900   -1.30354100
Se   13.34964000    1.55957000   15.85933000     -1.281366    0.08557100   -0.14896700
Se   12.94718000    7.53899000    6.29715000      0.056753   -0.49366100   -0.13102800
Se   12.91774000    7.21582000   15.49894000     -0.253313   -0.78533800    0.75246400
Se   12.86710000   12.83329000    6.27180000      1.979254    0.72089000   -0.13269700
Se   13.43668000   13.04364000   15.80725000     -0.812601    0.61020200   -0.29143000
Se   12.58148000   19.11157000    6.31574000      1.550938    0.34017100   -0.42268600
Se   12.75087000   18.78945000   15.95518000      0.485314   -0.22164200    0.15139800
Se   19.22481000    1.34237000    5.90154000     -0.621937    0.05171700    0.51612600
Se   18.46589000    1.46450000   15.88484000      1.440382   -0.14617600    0.47544600
Se   19.09580000    7.57134000    5.68338000      0.599351    0.19807800   -0.25697100
Se   18.96612000    7.65247000   15.83123000      0.827979    0.22555200   -0.14928100
Se   18.84232000   12.99296000    5.70038000      0.333141   -0.38012600    1.09669300
Se   18.63954000   13.36149000   15.89076000      0.370115   -0.05301000   -0.41487200
Se   19.10208000   18.38401000    5.92292000     -0.286897    0.53470500    0.40529400
Se   18.97445000   18.97434000   15.79959000     -0.925245    0.90581100   -0.84614400
Se    4.40023000    4.28630000    6.45226000      0.171279   -0.24738700   -0.20582200
Se    4.30142000    4.21461000   15.83988000     -0.145452   -0.03334200   -0.69987300
Se    4.26603000   10.23827000    6.04354000     -0.109799    0.68296700    0.99416100
Se    4.50739000   10.30369000   15.64272000      0.552258    0.07804400    0.42771900
Se    4.35115000   15.94378000    6.23335000      0.452553   -0.71811300   -0.83357800
Se    4.09724000   15.82577000   16.04700000     -0.307063    0.05996200   -0.10929200
Se    4.52922000   21.82532000    6.49062000     -1.399792   -0.48977100   -0.16068600
Se    4.24565000   21.83226000   15.69208000      0.984767   -0.29933500   -0.04130000
Se   10.25902000    4.38537000    6.25397000     -0.034290   -0.23032900   -0.21091600
Se   10.22631000    4.56346000   15.25635000      0.233442    0.02572500    0.89373900
Se   10.11362000   10.46088000    5.77677000      0.940262   -0.15279500    0.49544500
Se   10.15262000   10.05204000   15.71985000     -1.299775    0.00206600   -0.06639900
Se   10.38455000   16.14008000    5.84044000     -0.603229   -0.20966400    0.15147300
Se   10.03879000   15.87660000   16.05106000      0.216232   -0.76864300   -0.70996900
Se    9.94526000   21.45555000    5.96659000     -0.260633   -0.05254600   -0.09164500
Se   10.23186000   21.33321000   16.39139000      0.307860   -0.37398100   -0.81006500
Se   15.96167000    4.74318000    5.79434000      0.227291    0.36238700    0.72010100
Se   15.96595000    4.18279000   15.81759000     -0.484464    0.82813600   -0.06709000
Se   15.98006000    9.97913000    5.99707000      0.639818    0.26624400   -0.01241400
Se   16.08663000    9.85502000   15.89016000     -0.417136    0.07884600   -0.30340000
Se   15.60076000   16.50344000    5.54275000      0.274548    0.08180300    0.73191400
Se   16.07533000   16.59109000   15.88535000      1.506430   -1.60532700   -1.49457800
Se   16.02992000   21.75573000    6.21992000     -0.689504    0.55040900    0.31673500
Se   15.82281000   21.46752000   15.37239000      0.278640    0.56348200    0.87414300
Se   21.96199000    4.26380000    6.17286000     -0.862007   -0.03572800   -0.68306300
Se   21.50804000    4.61716000   15.72974000      0.857384    0.67456400    1.05179100
Se   21.96241000   10.48422000    5.98305000     -0.002453   -0.34696600   -0.14023600
Se   21.79763000   10.63261000   15.63191000      0.388111   -0.75190600   -0.63494200
Se   21.87709000   15.51992000    6.32009000     -0.265912    0.47373300   -0.16848200
Se   21.72535000   15.95309000   15.72397000     -1.726184    0.34896300    0.47486900
Se   21.94040000   21.93938000    6.09056000      0.259019   -0.63908600    0.02078700
Se   22.02938000   22.08282000   15.78321000     -0.680233   -0.37575400   -0.26320200
Se    4.22923000    1.26671000    3.91137000      0.354682    1.05832000    0.04551500
Se    4.19761000    1.30087000   13.55314000     -0.371436   -0.70243200    0.11505100
Se    4.50594000    7.22838000    3.95333000      1.176447    0.00634800   -0.99066600
Se    4.59859000    7.30797000   13.27118000     -0.020545   -0.62198900    0.23140200
Se    4.26669000   12.99374000    3.86364000     -0.567821   -0.44001100    0.32050900
Se    4.16600000   12.96440000   13.37376000      0.386656   -0.20672400   -0.04800800
Se    4.24156000   18.79737000    3.90833000      0.752732   -0.93350900   -0.80753100
Se    4.12870000   18.49560000   13.53593000      0.484271   -0.04230200    0.07857400
Se   10.36377000    1.29054000    3.97502000     -0.357578   -0.17080300    0.28505400
Se   10.33377000    1.49598000   13.39810000      0.369268   -0.60560400   -0.09237100
Se   10.31790000    7.28563000    3.70909000      0.337823    0.42211300   -0.51492200
Se   10.17286000    7.18218000   13.30438000     -0.457625    0.60400000   -0.06606200
Se   10.07430000   12.82031000    3.69665000      0.483086    0.85860200   -0.42497400
Se   10.39587000   13.14275000   13.64364000     -0.108350    0.31820200   -0.19980600
Se    9.86353000   18.56770000    3.26335000      0.153484    1.11206800    0.31730700
Se   10.07053000   18.70262000   13.36185000      0.189482    1.14440500    0.29241800
Se   16.11541000    1.43029000    3.63480000      0.167304   -0.09521500   -0.08663500
Se   15.91720000    1.40829000   13.28730000     -0.280856    0.60898000    0.05614700
Se   16.21419000    7.12934000    3.77035000     -0.680424    1.12547500   -0.13380100
Se   15.62080000    7.41424000   13.14674000      1.426028   -0.58325500   -0.55865300
Se   15.94634000   13.04858000    4.03293000     -0.415028   -0.32414000   -0.16816800
Se   16.24367000   13.47310000   13.59331000     -0.609024   -0.57690700    0.09127000
Se   15.86341000   19.38336000    3.85612000     -0.137469    0.14219000   -0.37946600
Se   15.82531000   19.04307000   13.03642000     -0.542238   -0.46254400    0.44751200
Se   22.03219000    1.43406000    3.55452000      1.036809   -1.11323400   -0.59924300
Se   21.64125000    1.71601000   13.61796000      0.313780    0.08264000   -0.26454400
Se   22.35334000    7.52810000    3.60000000     -1.077739    0.55427500   -0.27491400
Se   21.89734000    7.44157000   13.59113000      0.668171   -0.03659500   -0.61806800
Se   21.72219000   13.20766000    3.42542000     -0.361573   -0.80660900    0.66784100
Se   21.89164000   13.12457000   13.63957000     -0.287951   -0.04171700   -0.26729000
Se   21.55168000   18.94275000    3.82716000      0.748331    0.50708100   -0.53142200
Se   21.59200000   19.00297000   13.11825000      0.300645    0.09899100    0.11930100
Se    1.91450000    4.30794000    3.54303000     -0.343725   -0.01480800    0.29691600
Se    1.32279000    4.53825000   13.28516000      0.427478   -0.04764400    0.42053900
Se    1.44106000   10.37273000    3.77710000      0.508588    0.48511300   -0.31327300
Se    1.94732000   10.24969000   13.40039000     -0.575070   -1.16141100   -0.03827000
Se    1.67289000   16.03215000    3.49693000     -1.008736    0.11754500   -0.23467500
Se    1.44311000   16.29181000   13.29052000      0.161346   -1.32173200    0.62927900
Se    1.50699000   21.59055000    3.92604000      0.454936    0.69367800    0.18891700
Se    1.58778000   21.46979000   13.49508000     -0.485543    1.08072400   -0.73320500
Se    7.51661000    4.24151000    3.49537000      0.374526    0.20997400    0.79163100
Se    7.14567000    3.85892000   13.70493000     -0.075296    1.69866400   -0.23690400
Se    7.55901000   10.26695000    3.42426000     -0.738641    0.19083900   -0.49574500
Se    7.23494000   10.23560000   13.22275000     -0.367926   -0.18281800   -0.61289900
Se    7.11803000   15.67255000    3.87981000     -0.533133    1.11193100   -0.69057700
Se    7.20243000   15.84237000   13.34107000      0.067128    0.00080900    0.14173000
Se    7.09710000   21.78350000    3.80571000     -0.452031   -0.75108900   -0.16251900
Se    7.33179000   21.64319000   13.93941000     -0.844914   -0.90533300   -0.92959400
Se   13.06533000    4.21258000    3.59283000      0.993179    0.62578100    0.88995700
Se   13.40352000    4.76472000   12.81997000     -0.410184   -1.11403800    0.64241800
Se   13.07159000   10.38708000    3.76351000     -0.290795   -1.18407100   -0.86578700
Se   12.82743000   10.43849000   13.79687000     -0.192121   -0.79061500   -0.92866100
Se   12.82031000   15.74272000    3.66252000      0.506114    0.84895300    0.22779100
Se   13.15768000   16.33752000   13.59451000     -0.503867   -0.98236000   -0.37342200
Se   12.42271000   21.97610000    3.67378000      0.868768   -0.34826200    0.44521600
Se   12.92749000   21.90344000   13.25375000      0.084995   -0.27659700    0.38994000
Se   19.07779000    4.22320000    3.36080000      0.084216   -0.45263400    0.09440300
Se   19.00024000    4.54454000   13.26891000     -0.893718   -1.32766300    0.26465500
Se   18.83650000   10.43673000    3.52248000      0.217918   -0.60358300   -0.41263500
Se   18.65667000   10.47657000   13.28398000      0.554792   -0.35458400    0.25916800
Se   18.67172000   15.96453000    3.69431000     -0.467806    0.29135600   -0.55098500
Se   18.76810000   16.28101000   13.46468000      0.186302   -0.10861900   -0.52542400
Se   19.05622000   22.02011000    3.79706000     -0.462948   -0.44599400   -0.26728700
Se   18.84484000   21.88329000   13.59900000      0.569316    0.61775500    0.35787000
