384
23.23808000 23.23808000 19.51320000
Ge    5.83379000    5.43403000    9.82324000      0.469196    0.63730400    0.24711100
Ge    6.05481000    5.62110000    0.02110000      0.557362    0.51764000   -0.39283300
Ge    5.72413000   11.43316000    9.38729000      0.010212   -0.86993600   -0.23469900
Ge    5.49855000   11.41289000    0.01981000      0.230637    0.02883400    0.59200600
Ge    6.05548000   17.29626000    9.88450000     -1.639293   -2.50529800   -1.35075100
Ge    5.64404000   17.51555000    0.32940000      0.134726    0.38657500   -0.56512600
Ge    5.92262000   22.93260000   10.01525000     -0.057134   -0.54261600    0.29875800
Ge    5.78454000    0.08036000   19.48488000     -0.210898    1.00964300    0.71423400
Ge   11.89679000    5.85182000    9.92366000      0.513012    1.58514900   -1.14394400
Ge   11.66645000    5.63887000    0.04674000     -0.032667    0.20048700    0.41021100
Ge   11.90910000   11.55774000    9.71785000     -0.135288   -0.03756600    0.61894800
Ge   11.65456000   11.56546000   19.29130000      0.455020    0.18333400    0.05357300
Ge   11.24213000   17.46424000    9.86935000      0.672308   -0.37629400    0.05206900
Ge   11.84091000   17.30297000   19.46453000     -1.276265    0.94067000    1.68134100
Ge   11.16020000   22.93217000    9.65668000      0.589779    0.57811000   -0.15217000
Ge   11.66928000   23.18288000    0.10647000      0.607758   -0.70764300   -0.46313700
Ge   17.65603000    5.92363000    9.73954000     -1.388882    0.63760200   -0.01583600
Ge   17.26748000    5.85515000    0.01302000      0.195157    0.97320500   -1.31385800
Ge   17.60898000   11.66909000    9.72159000     -0.081393   -0.37699600   -0.35183800
Ge   17.72248000   11.55492000   19.40167000     -0.376430   -0.01372100   -0.55889200
Ge   17.25505000   17.62075000    9.66520000      1.052390    1.37355000   -0.15673100
Ge   17.00805000   17.50200000    0.24237000      0.586409    0.64971100    0.31822500
Ge   17.32539000    0.18352000    9.77265000      1.130956    0.20218800   -0.10273500
Ge   17.62495000   23.06816000   19.35274000     -1.039615   -0.27522900   -1.08475300
Ge    0.14572000    5.93537000    9.63594000     -0.942446    0.44719900    0.17764000
Ge    0.56414000    5.68496000    0.05615000     -1.071783    0.81430700    1.18792700
Ge   23.16678000   11.95550000   10.05792000     -0.096029   -0.06586000   -1.60578200
Ge    0.14547000   11.79200000   19.21537000      0.083720    0.95470600   -0.58196800
Ge   23.09121000   17.21719000    9.78320000      0.655851    0.44831200    0.18507500
Ge   23.10802000   17.49186000    0.16247000     -0.197255    0.19856000   -0.56242600
Ge    0.22407000    0.04314000    9.94141000     -1.668156    0.87108200    0.02639800
Ge    0.36380000    0.00423000   19.40561000     -0.683655   -1.02216700   -0.12012900
Ge    2.78148000    5.70919000    7.25957000      0.053426    1.05362100    0.75547400
Ge    3.21976000    5.88559000   17.06844000      0.124258   -0.04937200    0.16224300
Ge    2.85498000   11.85510000    7.26527000     -1.590920   -0.98714300   -0.41633000
Ge    2.66132000   11.51043000   16.78584000      0.940111    0.09629600    0.25395300
Ge    2.97457000   17.30068000    7.38468000     -0.622927    0.71746200    0.46362100
Ge    2.42722000   17.28591000   17.19924000     -0.818652    0.32223300    0.03181100
Ge    2.90468000   23.12909000    7.83803000     -0.272538   -0.63406700   -2.01660600
Ge    3.02318000    0.11962000   17.21402000     -0.827110    0.08203100   -1.19050100
Ge    8.88058000    5.86590000    7.51682000      1.040304    1.83057900   -1.08618000
Ge    8.86618000    5.78823000   16.86032000      0.200020   -1.07327800    0.13251700
Ge    8.71478000   11.57225000    7.37650000      1.147176   -1.27499100    0.54404200
Ge    8.44313000   11.48887000   16.83600000      0.323059    0.25643900    1.29260700
Ge    8.73418000   17.26223000    7.17056000     -0.399127   -0.22828600    0.10106400
Ge    8.69536000   17.23411000   17.34476000     -0.216829    0.08614600    0.71928700
Ge    8.49951000   22.88414000    7.29507000      0.810431    0.15417000   -1.49618800
Ge    8.81412000   22.94709000   17.28429000     -0.479972   -1.15732100   -0.22468200
Ge   14.40800000    6.01153000    7.46526000      0.202455    0.89618800   -0.60753500
Ge   14.33474000    5.58212000   16.85013000     -0.576649    0.57579700    1.89279700
Ge   14.79017000   11.67633000    7.29053000     -0.886166   -0.47427000   -0.03846000
Ge   14.69962000   11.32043000   17.00738000     -0.505444    1.71997800    0.37206200
Ge   14.20604000   17.61948000    7.17939000      0.726768   -0.01144500    0.78236100
Ge   14.48666000   17.61678000   17.08628000      0.808459    0.55302800    0.69543000
Ge   14.65999000   23.10944000    7.47770000     -2.101409    1.16746400    0.79990400
Ge   14.52248000   22.86679000   16.86738000      0.326159    1.35564800    0.62378200
Ge   20.51324000    6.04548000    6.93919000     -0.560522    0.12963500    0.63726000
Ge   20.46369000    6.24102000   17.26806000     -0.497212   -0.31566500   -0.28248000
Ge   20.40273000   11.81384000    7.26024000     -0.572132    0.76701800   -0.42966000
Ge   20.24264000   11.94520000   16.74374000      0.680554    0.15171500    0.45343500
Ge   20.38538000   17.08478000    7.52281000      0.238412    0.75147900   -1.02892800
Ge   20.02008000   17.49797000   17.27297000      0.670416   -0.63947100   -0.77449100
Ge   20.63901000    0.07708000    7.42528000     -0.468454   -0.18136200    0.50561000
Ge   20.20613000    0.05148000   16.97009000     -0.251033   -0.29677600    0.09016000
Ge    3.05389000    2.89946000    5.17024000     -1.795638   -0.13094300    0.22605700
Ge    2.66871000    2.79059000   14.50925000      0.385482    0.84078000   -0.22419500
Ge    2.95249000    8.86389000    4.70430000      0.551858   -1.42945300    0.29698100
Ge    3.09145000    8.57086000   14.70176000      0.701465    1.53525600   -1.23777700
Ge    2.81823000   14.59780000    5.08012000     -0.613105   -0.09099300   -1.66005600
Ge    2.82791000   14.60986000   14.48886000     -0.912167   -1.27453000    0.48432700
Ge    2.97258000   20.32747000    5.14534000      0.256256   -1.43873400    1.27349400
Ge    2.85071000   20.14010000   14.84427000     -1.442365    0.24556200   -0.64418200
Ge    8.86511000    2.95996000    5.06490000     -0.744595   -1.50962700   -1.40814600
Ge    8.86285000    2.71711000   14.85897000      0.770140    0.50040000   -0.97655400
Ge    8.80144000    8.75119000    4.73209000     -0.115015    0.92450300    1.11043600
Ge    8.47573000    8.63485000   14.52800000      1.434532    0.63470200   -1.13673100
Ge    8.84784000   14.43503000    4.90038000      0.090096   -0.25904800    0.77085300
Ge    8.75465000   14.54848000   14.68337000      0.436218   -0.49195800   -0.14440100
Ge    8.38343000   20.04975000    4.81630000      0.753207    0.08046500   -0.58533300
Ge    8.73237000   20.15141000   14.90582000     -1.137545    0.45127400    1.21395200
Ge   14.80348000    2.99626000    4.95381000     -0.999953   -0.49175400   -0.16463800
Ge   14.58867000    3.06310000   14.27952000     -0.022254   -0.58630100    1.79938200
Ge   14.44905000    8.62162000    4.65919000     -0.458246   -0.42864300    1.32974200
Ge   14.39004000    8.71212000   14.49266000     -0.017340    0.34985900    0.89722000
Ge   14.23189000   14.46088000    5.06739000      0.190670    0.30618500   -0.19214400
Ge   14.63812000   14.84472000   14.76846000      1.027935    0.33593800   -0.27526200
Ge   14.10775000   20.78233000    4.88692000      0.023809   -1.77977600    0.05374800
Ge   14.05339000   20.18643000   14.49893000      1.782775   -1.43588900    0.16344900
Ge   20.68988000    2.86583000    4.77957000     -1.641664    0.02051300   -0.66340900
Ge   19.89591000    3.03125000   14.71933000      1.818626    0.64680500    0.26948700
Ge   20.75873000    9.13759000    4.51202000     -1.247269   -0.07948500    0.80083800
Ge   20.36276000    9.14655000   14.37496000      0.553615   -0.41308000    0.58114900
Ge   20.30084000   14.55389000    4.81602000     -0.076809    1.15742700   -0.26663800
Ge   20.12272000   14.60502000   14.46277000      0.400989    0.64785500    0.48746200
Ge   20.29357000   20.41222000    5.20030000      0.297956    0.60601400   -0.64511800
Ge   20.83975000   20.46600000   14.59527000     -2.837041    0.27118100    0.63561000
Ge    5.64595000    2.88070000    2.76058000      0.796234   -0.64512800   -0.26524900
Ge    5.95443000    2.38976000   12.41907000      0.021753   -0.10598900    0.49043700
Ge    6.14326000    8.50009000    2.55411000      0.175360   -0.29228600    0.14958400
Ge    5.75492000    8.83788000   11.84087000     -0.397454    0.91473300   -0.08893200
Ge    5.62049000   14.45615000    2.60758000      0.630097   -1.18569400    0.08106800
Ge    5.88319000   14.23559000   12.26019000     -0.861155   -0.17971400   -0.04734100
Ge    5.35208000   20.55245000    2.53184000      0.388366    0.00618000    0.79455000
Ge    5.78883000   19.85225000   12.44934000      0.635287    1.56123400   -0.12611100
Ge   11.85771000    2.57670000    2.60829000     -0.952196   -1.11134400   -0.15539200
Ge   11.65521000    2.98486000   12.13504000      1.502887   -0.96103300    0.87993900
Ge   11.63038000    8.72612000    2.34989000     -0.141777    0.61492800   -0.31198400
Ge   11.48645000    8.84208000   12.42543000      1.040601    0.50826400   -1.42490600
Ge   11.52817000   14.09425000    2.37715000     -0.469232    0.06530700   -0.42555500
Ge   11.65376000   14.80145000   12.18470000      0.282903   -0.00526700    0.33673500
Ge   11.46087000   20.29063000    2.41059000     -0.828672   -2.95380500   -0.46382700
Ge   11.36835000   20.48538000   12.15561000     -0.106063   -0.53698200    1.84006200
Ge   17.68829000    2.78891000    2.20481000      0.300373   -0.76031400   -0.01527600
Ge   17.43232000    2.98336000   12.13409000     -0.619110    0.11903800   -1.10935500
Ge   17.41216000    8.88432000    2.32086000     -0.429864   -1.33632100    0.55129300
Ge   17.32464000    9.05737000   12.13982000     -0.520225   -1.30275100    0.19909900
Ge   16.96519000   14.44341000    2.45202000      3.050573    0.01648900    0.00061400
Ge   17.44195000   14.89100000   12.07334000      0.954489   -0.30898800    0.47605500
Ge   17.61183000   20.60689000    2.51261000     -0.978994    0.69563600    0.23072400
Ge   17.65697000   20.45234000   12.27345000     -0.923755   -0.50173800   -0.65699100
Ge    0.24586000    2.75773000    2.42846000      1.579331    0.21107300   -0.82934400
Ge   22.93717000    3.07204000   12.07813000      1.146403   -0.81386400    1.12598400
Ge    0.21931000    9.04777000    2.13159000      0.744388   -0.48568100   -0.15451500
Ge    0.46275000    8.75575000   12.26842000     -1.996444   -0.63897600   -0.41388400
Ge   23.17104000   14.76205000    2.39531000      0.075895   -0.98578800    0.32917200
Ge    0.08520000   14.63202000   12.25695000     -0.229964    0.20297400    0.36746300
Ge   23.14174000   20.29164000    2.67787000      0.808458   -0.32791500    0.00274200
Ge    0.09412000   20.30562000   11.98991000      1.025967   -0.48820700   -0.26135000
Se    1.77638000    1.48970000    0.95250000      0.029659    0.54366700    0.56079100
Se    1.39905000    1.32017000   11.43456000      0.080275    1.21753200    0.44785100
Se    1.85501000    7.37511000    1.29969000     -0.526148    0.18442100   -0.32313200
Se    1.59932000    7.59148000   10.48113000      0.354967   -0.08648200    0.67328400
Se    1.43760000   13.36154000    1.01428000      0.040906   -0.00609600    0.16324600
Se    1.53863000   13.04788000   11.30802000      0.867408    0.45577100    0.03416200
Se    1.44347000   19.05449000    1.28311000     -0.414743   -0.63509300   -0.25891800
Se    1.47788000   18.43800000   11.07789000     -0.792325    0.77058600   -0.16159100
Se    7.12046000    1.34313000    1.65476000     -0.134498   -0.32116200   -1.02795800
Se    7.42844000    1.19759000   11.07121000      0.392555   -0.33371100   -0.11477000
Se    7.55473000    7.25973000    1.07153000      0.067038   -0.31607800    0.09045900
Se    7.17689000    7.33953000   10.76628000      0.470482   -1.06748100   -0.25398700
Se    6.84521000   13.00146000    1.18100000      0.734805    0.03791400   -0.08069900
Se    7.03211000   12.51047000   11.08590000      0.664916    0.08791300   -0.14925900
Se    6.97305000   19.38385000    1.30684000     -0.244360   -1.14481700   -0.60019600
Se    7.40101000   18.73213000   10.84205000      1.276911    1.72901700    1.89638800
Se   13.34731000    1.10086000    1.34783000     -0.444522    0.48036100   -0.12494300
Se   12.63544000    1.09433000   10.92608000      0.598419    0.24520100    0.15263100
Se   13.20281000    7.35677000    1.16088000     -0.875204   -0.32327300   -0.28860600
Se   13.29380000    7.47603000   11.22273000     -0.942129   -0.42029900   -0.13020100
Se   13.18503000   12.93016000    1.08550000     -0.257121   -0.21776900   -0.32908400
Se   13.11864000   13.48466000   10.78525000      0.087138   -0.66966300    0.02257000
Se   13.17018000   18.89124000    1.36506000     -0.726380   -0.03460300   -0.02700100
Se   12.76859000   19.06849000   11.09122000      0.424379   -1.67676100   -0.95568600
Se   19.18401000    1.21743000    0.76445000      0.020111    1.29321800    1.14779800
Se   18.88352000    1.78861000   10.71946000      0.091179   -0.75327500    0.01492600
Se   18.81293000    7.30278000    1.15871000     -0.043431    0.33993000   -0.20681500
Se   18.76939000    7.29915000   11.40231000      0.624131   -0.00399900   -0.56602300
Se   18.80619000   13.15862000    1.21408000     -0.205697    0.82394900    0.41895700
Se   18.85947000   13.17629000   11.00217000      0.599092    0.75730000    0.30725000
Se   18.66259000   18.70702000    1.61087000      0.186481   -0.19274200   -0.45934900
Se   19.00641000   18.91440000   10.96143000     -0.769375   -0.23097000   -0.27952500
Se    4.52618000    4.57064000    1.56625000     -0.657966    0.27012100   -0.62733300
Se    4.68768000    4.07529000   11.46736000     -1.006462    0.90850300   -1.05857900
Se    4.54316000    9.76623000    1.43808000     -1.370607    0.39662300   -0.55904800
Se    4.13212000    9.77906000   10.13640000      0.505466    0.63005900    1.10457100
Se    4.28606000   16.05163000    1.71450000     -0.871595    1.31803100   -0.83913900
Se    4.49896000   15.73582000   11.03325000      0.298368    0.60512700   -0.41576200
Se    4.07018000   22.13557000    1.21719000     -0.061059   -0.34858300    0.19719200
Se    4.44378000   21.27939000   10.93328000      0.390585    0.02500300    0.71589400
Se   10.36050000    3.93184000    1.33266000     -0.050890    0.68611600   -0.33885100
Se   10.41034000    4.34684000   10.85958000     -2.186879    0.49713800   -0.43158500
Se   10.15731000   10.38564000    1.11025000      0.175379   -1.08683400    0.64263600
Se   10.22169000   10.08095000   10.74308000      0.827792    0.30978000    0.39328000
Se   10.32950000   15.61997000    0.92999000     -0.041341    0.39334900    0.05840100
Se    9.89888000   15.61159000   10.73848000      0.501926    0.85237100    0.25546700
Se   10.10712000   21.62186000    1.06037000     -0.410230    0.67077700   -0.37729200
Se    9.74376000   21.50971000   10.95811000     -1.028227    0.67267700   -0.55622500
Se   16.14152000    4.39770000    1.41988000     -0.883470   -0.53818700   -0.04577300
Se   16.02499000    4.37041000   10.65033000      0.601577    0.05354100    0.30099700
Se   16.06162000   10.56595000    1.29927000     -0.169470   -0.64753000   -0.10855600
Se   15.93628000   10.57595000   11.04519000     -0.219324   -0.06247100   -0.39857400
Se   15.67181000   16.08876000    1.64371000     -1.543916    0.97535800   -0.76575200
Se   15.93116000   16.16757000   10.87154000     -1.335363   -0.40497000    0.03477200
Se   16.00805000   21.89504000    1.05658000      0.814570   -0.63605100    1.04157800
Se   16.09683000   21.74279000   10.82468000      0.170669   -0.27724900    0.77550300
Se   22.23496000    4.34400000    1.34467000     -0.581938    0.77511100   -0.60949500
Se   21.76727000    4.53214000   10.70801000     -0.588054    0.38736300   -0.04095400
Se   21.99671000   10.59910000    1.10032000     -0.935341   -0.77938400    0.56422400
Se   22.10787000   10.41483000   11.39400000     -1.052946   -0.91048800    0.25471300
Se   21.55245000   16.23340000    1.49417000      0.196991    0.07095800   -0.17525300
Se   21.70933000   15.58381000   10.79789000      0.010511    0.35715700    0.30292200
Se   22.16645000   21.96612000    1.33401000     -1.039865    0.37303800   -0.14647200
Se   21.89698000   21.89001000   11.04579000     -0.676272   -0.03462500   -0.22964700
Se    1.37350000    4.32724000    8.61271000      0.712453   -0.94028300   -0.72781900
Se    1.98448000    4.32028000   18.45677000      0.492940   -0.40541400   -0.79204400
Se    1.48195000   10.51018000    8.74673000     -0.186549    0.12638300   -0.35903300
Se    1.20331000   10.04610000   17.93202000     -0.043143    0.01642600    0.42387000
Se    1.39043000   15.89138000    8.56441000      0.362561   -0.50491700   -0.19369300
Se    0.97998000   15.72476000   18.24677000     -0.237332    1.10834700    0.47226500
Se    1.31320000   21.65022000    8.82293000      0.777622   -0.86978400   -0.81851000
Se    1.66352000   21.64566000   18.20271000     -0.008991    0.61961300    0.17413000
Se    7.58841000    4.28021000    8.53642000     -0.958527   -0.78908800    0.76340900
Se    7.42844000    4.16313000   18.03015000     -0.151172    0.40115200    0.29092900
Se    7.41773000    9.81996000    8.25852000     -0.921386    0.90957200    0.62302100
Se    6.94697000   10.20645000   18.17114000      0.623617   -1.08148400   -0.18856400
Se    7.38117000   15.75619000    8.48168000     -0.201424   -0.01628000    0.37406100
Se    7.01741000   15.91240000   18.66685000      0.533542    0.42181500   -0.21832500
Se    7.17831000   21.53251000    8.58173000     -0.384023   -0.77664500    0.17695000
Se    6.92886000   21.75324000   18.11219000      0.041442   -0.22364500    0.34969400
Se   13.06489000    4.27122000    8.35360000     -0.241374    0.63872400    0.84865900
Se   13.00604000    4.06781000   18.40744000      0.328930    0.59605600   -0.80844000
Se   13.50085000   10.14790000    8.59804000     -0.424974    0.23366600    0.24823500
Se   12.81483000   10.15905000   17.75929000     -0.115202   -0.64626900    0.28173200
Se   12.95503000   16.11986000    8.70423000      0.204081    0.40505300   -0.33941000
Se   13.24389000   16.03177000   18.25593000      0.578698   -1.71262500   -0.52746000
Se   12.94724000   21.62217000    8.67457000      0.282254    0.40285000   -0.31874200
Se   13.09723000   21.58466000   18.30417000     -0.296875    0.26011600    0.07928600
Se   18.92026000    4.65632000    8.23055000      0.501051   -0.04127600   -0.31010200
Se   18.84953000    4.63463000   18.10970000     -0.178209    0.32047500    0.35085200
Se   19.12456000   10.21209000    8.45137000     -0.473414    0.02123800    0.63649600
Se   18.90235000   10.23444000   17.69293000     -0.271979   -0.26882800    1.05687300
Se   18.42674000   16.03048000    8.31821000      0.336981   -0.67464600   -0.00628400
Se   18.33781000   16.07605000   18.45375000      0.804184   -0.16904900   -0.33731300
Se   18.80074000   21.95888000    8.47938000      0.494493    0.43810000   -0.32508300
Se   18.84148000   21.51433000   17.91688000     -0.034401    0.79198600    0.21862400
Se    4.27454000    1.11200000    9.19584000      0.126495    1.67103600    0.20656900
Se    4.46958000    1.81126000   18.10993000      0.426288   -1.15340300    0.38289500
Se    4.39087000    6.96764000    8.64411000     -0.159078   -0.35129200   -0.26743400
Se    4.78652000    7.33387000   18.26144000     -0.295417   -1.05472700   -0.08514900
Se    4.52545000   13.12512000    8.11996000      1.025796    0.87245600    0.80543000
Se    4.04537000   12.77013000   18.36858000     -0.847699    0.87348800   -0.46692000
Se    4.68459000   18.60711000    8.46981000     -0.745657    0.38730300    0.12633700
Se    3.84581000   18.69521000   18.45507000      0.689870    0.01398600    0.50929900
Se    9.85435000    1.19149000    8.32156000      0.830833    0.32712600    0.81006000
Se   10.32916000    1.17611000   18.06707000      0.887059    1.62128900    1.00719900
Se   10.35668000    7.59560000    8.66033000     -0.192548   -1.87696000    0.06602600
Se   10.03871000    7.13333000   18.35113000      0.832079    0.11621000    0.53173000
Se   10.29306000   12.85107000    8.58641000     -0.157440    0.70882900   -0.10158200
Se    9.99173000   12.81361000   18.18391000     -0.424650    0.95269600   -0.25256300
Se    9.80012000   18.82787000    8.57496000      0.217308    0.50286500    0.06009300
Se   10.29154000   18.78619000   18.39790000     -0.353054   -0.55329800    0.07598600
Se   15.69748000    1.53552000    8.75708000      0.142174    0.37773800   -0.05024200
Se   15.93886000    1.19676000   18.24879000     -0.017107   -0.42563600   -0.53505400
Se   15.96520000    7.54775000    8.84683000     -0.039833   -1.23631100   -0.47801100
Se   15.47321000    7.24710000   18.25806000      0.923854   -1.03202400    0.44891700
Se   16.32101000   13.10191000    8.33828000     -0.097031    0.72627600   -0.00649500
Se   15.99578000   12.83960000   18.30491000     -0.006068    0.34602600    0.05840100
Se   15.97563000   19.12393000    8.35328000     -0.776351   -0.51197900   -0.16618600
Se   15.55324000   19.09456000   18.76418000      0.121678   -0.05094800   -0.66458600
Se   21.95012000    1.62019000    8.81598000     -0.107552   -0.70308300   -0.37818100
Se   22.03346000    1.28940000   18.04752000     -0.266261    0.39094900    0.22905600
Se   22.05186000    7.34368000    8.25297000     -0.226522    0.25712900   -0.19240200
Se   22.15357000    7.20751000   18.70538000     -0.206856    0.51891700   -0.34951900
Se   21.80318000   13.41607000    8.43973000      0.160038   -0.91985500    0.50952000
Se   21.80045000   13.27297000   18.05175000     -0.046532   -0.17594300    0.37902000
Se   21.58266000   18.75186000    8.82729000     -0.213815   -0.05059400   -0.42628500
Se   21.38928000   18.98611000   18.56024000      0.587471   -0.48823500    0.20105100
Se    1.55297000    1.41905000    6.37360000      0.034752   -0.22809100    0.44045000
Se    1.32752000    1.40702000   15.73664000     -0.134468   -0.98417400    0.97836800
Se    1.70216000    6.98073000    5.56603000     -0.818094   -0.11631100    0.50690000
Se    1.63357000    7.48023000   16.08413000     -0.580376   -0.96971300    0.44405000
Se    1.21991000   13.18658000    6.08794000      0.280638   -0.09138700    0.18703800
Se    1.23074000   12.96482000   15.60508000      0.351037    0.71286300   -0.19448100
Se    1.38086000   18.89424000    6.50752000      1.050127    0.19673800   -0.38301400
Se    1.12270000   19.01480000   16.00480000      0.195785   -0.66767000    0.25734300
Se    7.35716000    1.43194000    6.18279000     -0.880164    0.26417600   -0.28434000
Se    7.56787000    1.10931000   15.92823000     -1.019565    0.24614400   -0.18081700
Se    7.40754000    7.23806000    6.03564000      0.133092   -0.13999800    0.22078000
Se    7.30764000    7.02603000   15.63866000     -1.268464   -0.31073500    0.38928100
Se    7.40263000   13.13153000    6.45648000     -0.972806    1.57883600   -1.25906800
Se    7.13540000   12.94470000   15.60880000     -0.149788    1.03757000   -0.35655800
Se    7.03368000   18.68006000    6.21326000      0.199434   -0.13511600   -0.15928500
Se    7.17312000   18.65222000   16.25682000      0.350640    0.55804700   -0.76228700
Se   13.26603000    1.60848000    6.29597000      0.463892   -0.26497800   -0.25695100
Se   13.30548000    1.51851000   15.85288000     -0.247284    0.09623900   -0.39241400
Se   12.78158000    7.47833000    6.21754000      1.367803   -0.32023000   -0.14794700
Se   12.97300000    7.05202000   15.64622000     -0.557645    0.61097500   -0.33973200
Se   12.95820000   12.76300000    6.18066000      0.434335    0.63230000    0.17916600
Se   13.42823000   13.18055000   15.93471000     -0.272731   -0.25480800    0.09483500
Se   12.60762000   19.07107000    6.31784000      0.350733    1.05915800   -0.93431300
Se   12.75220000   18.61806000   15.88548000     -0.155944    1.10862600   -0.63864000
Se   19.21104000    1.31072000    5.94540000      0.081327    0.59080700    0.04860600
Se   18.50045000    1.56671000   15.83528000      0.245467   -0.79932400    0.78423700
Se   19.18290000    7.57739000    5.64788000      0.558307   -0.08985200    0.10302000
Se   19.05341000    7.60652000   15.79677000      0.012416    0.16828500    0.15082800
Se   18.79298000   13.05723000    5.72919000      0.390254   -0.75442100    1.27686100
Se   18.59606000   13.42938000   15.82841000      0.170318   -0.60345500    0.08804400
Se   19.08503000   18.53631000    5.88177000     -0.369633   -0.53304400    0.91905100
Se   18.96881000   18.94962000   15.68571000      0.529687    0.57489400   -0.22599000
Se    4.33904000    4.24033000    6.47781000      1.826007   -0.30553600   -0.01180800
Se    4.26590000    4.09531000   15.75290000      0.181371    0.71034900    0.04880500
Se    4.18262000   10.30038000    5.98561000      0.884036    0.39904400    0.82343700
Se    4.40703000   10.35734000   15.61098000     -0.034569   -0.27954600    0.47520900
Se    4.40059000   15.96014000    6.08947000      0.388416    0.15216100    0.15429500
Se    3.92073000   15.93573000   16.02389000      1.601712   -0.07200800    0.18568300
Se    4.43415000   21.82125000    6.39895000     -0.449158   -0.06710300    0.07694900
Se    4.20149000   21.70289000   15.81777000      1.358637    0.82919200    0.48386000
Se   10.27678000    4.38364000    6.09093000      0.896377    0.98340300    0.93025200
Se   10.34284000    4.53544000   15.36169000     -0.224392   -0.07493000    0.75951200
Se   10.16204000   10.52751000    5.84540000      0.229691   -1.23489300   -0.17685000
Se    9.98797000   10.24598000   15.66271000      0.043232   -1.18127400   -0.46080400
Se   10.39191000   16.07707000    5.94016000     -0.461905   -0.35010100   -0.35524800
Se   10.21202000   15.83990000   16.17341000     -0.491525   -0.33565500   -0.57309000
Se   10.00663000   21.50892000    5.94975000     -0.623655   -0.05530500    0.25281100
Se   10.23788000   21.35114000   16.35666000      0.237941   -0.38705900   -0.62498100
Se   15.93012000    4.79366000    5.92235000      0.490833    0.39074200    0.50954500
Se   15.94628000    4.34788000   15.86723000      1.095763   -0.73070100   -0.97785600
Se   15.89725000    9.98794000    6.13274000      0.666592   -0.41708700   -0.65500300
Se   16.08779000    9.89741000   15.96093000      0.225925   -1.09139400   -1.31446100
Se   15.51770000   16.48860000    5.48467000     -0.196857   -0.28671400    0.82147000
Se   16.19004000   16.56550000   15.91055000     -0.590673   -0.93188900   -0.66864700
Se   15.88529000   21.77724000    6.11122000      0.683619   -0.46050000   -0.48802700
Se   15.84853000   21.41558000   15.54954000     -0.179802   -0.12473800    0.10001200
Se   21.93045000    4.34984000    6.02121000      0.847156    0.43760500    0.31228100
Se   21.52700000    4.70664000   15.82541000      0.096853   -0.98339800   -0.41360900
Se   21.96219000   10.48801000    6.11963000      0.408598   -0.45124000   -0.42404500
Se   21.91745000   10.57481000   15.65830000     -1.022505   -0.34411100   -0.55253800
Se   22.00716000   15.65355000    6.29126000     -1.290752    0.46848600   -0.12068500
Se   21.58728000   15.97197000   15.74749000     -0.553922    0.68758500    1.09899200
Se   22.00107000   21.88732000    6.04906000      0.014873   -0.28029600    0.47323500
Se   21.94658000   21.97982000   15.91694000      0.544088    0.53587100    0.00788500
Se    4.18868000    1.42846000    3.93723000      1.321745   -1.48457800   -0.84947500
Se    4.26703000    1.21452000   13.62792000      0.013197   -0.42025800   -0.25323700
Se    4.53080000    7.23792000    3.94142000      0.400997    0.47915800   -0.46775100
Se    4.59993000    7.38983000   13.28724000     -0.458150   -1.15402300    0.37992200
Se    4.27143000   13.07164000    3.90953000     -0.358380   -0.52961800    0.12159300
Se    4.15024000   12.94116000   13.47805000      0.825719    0.50002700   -0.35489500
Se    4.23888000   18.70677000    3.84390000      0.104147    1.27361300   -0.19096600
Se    4.12375000   18.59818000   13.65548000      0.677519   -0.89101400   -0.34020900
Se   10.12479000    1.17265000    3.85369000      0.554781    1.20604400   -0.12417400
Se   10.29393000    1.45442000   13.38742000      0.036927    0.17650300    0.19203500
Se   10.23399000    7.30416000    3.66898000      0.478013   -0.70453400   -0.42310900
Se   10.10052000    7.17001000   13.08320000     -1.191068    0.13936000    1.12188700
Se    9.94823000   12.71390000    3.69083000      0.666049    0.38795600   -0.52404600
Se   10.48744000   13.16977000   13.48615000     -0.711742    0.27346400    0.31799900
Se    9.71432000   18.65144000    3.22603000      0.360212    1.06101000    0.45485300
Se    9.89806000   18.81262000   13.48106000      1.222785   -0.08211500   -0.89326900
Se   16.11655000    1.46799000    3.62504000      0.299923    0.03437000   -0.16881300
Se   15.98226000    1.49930000   13.26180000      0.341513   -0.61481500   -0.12386500
Se   16.15439000    7.12004000    3.81154000     -0.090177    1.32576900   -0.60669300
Se   15.77123000    7.37797000   13.12731000      0.692812    0.59477800    0.01648600
Se   16.02433000   13.19836000    4.09343000     -0.671328   -1.51794700    0.44571300
Se   16.30047000   13.45182000   13.54209000     -1.043008    0.21354100    0.18900800
Se   15.98600000   19.41262000    3.86538000     -0.722428   -0.15185300    0.11689600
Se   15.89159000   18.93038000   13.05153000     -0.377742    0.49941800    0.48321600
Se   22.12856000    1.40549000    3.58327000     -0.893112   -1.54553400    0.81072600
Se   21.57928000    1.73552000   13.60537000      0.337727   -0.32718400   -0.21244000
Se   22.27726000    7.64187000    3.56535000     -0.744040   -1.02666700   -0.17773700
Se   21.80103000    7.33978000   13.54996000      0.665110    1.10345100   -0.50070600
Se   21.78042000   13.14072000    3.65509000      0.657789    0.30747300   -0.58616800
Se   21.91236000   13.25948000   13.64698000     -0.024862   -0.33911100   -0.37525300
Se   21.47319000   18.94014000    3.74818000      0.511602    0.13651000   -0.26968500
Se   21.69797000   19.06826000   13.07744000      0.014273   -2.05219600   -0.31925200
Se    1.85471000    4.13341000    3.49658000     -0.103656    0.76903200    0.43172500
Se    1.32189000    4.40748000   13.32688000      0.097358   -0.06926400   -0.09540000
Se    1.39304000   10.25110000    3.83890000     -0.416633    1.34641000   -0.96578500
Se    1.81151000   10.21848000   13.39665000      0.527814   -0.36960500    0.66083700
Se    1.60611000   16.13209000    3.48829000     -0.165903   -0.52244300    0.58705000
Se    1.60387000   16.18714000   13.29950000     -0.590180    0.24798100   -0.28823500
Se    1.57954000   21.63578000    3.93550000     -1.107942    0.93807600   -0.94006000
Se    1.48948000   21.54275000   13.36294000      0.436855    0.59788100    0.47808100
Se    7.47444000    4.20811000    3.44723000      0.236356    0.20794900    0.97269700
Se    7.15488000    3.90835000   13.70653000      0.432724    0.57504100    0.19052500
Se    7.47119000   10.28018000    3.47112000     -0.134473   -0.62235900    0.12258200
Se    7.10886000   10.26363000   13.37104000      0.120811   -0.52802700   -0.45891100
Se    7.17755000   15.69840000    3.83099000      0.339985    1.12044700    0.01603700
Se    7.21199000   15.87134000   13.31159000      0.434483   -0.09426300    0.52061900
Se    7.07733000   21.84326000    3.92740000     -0.673269   -0.64313100   -0.50209100
Se    7.27278000   21.77431000   13.95833000     -0.701817   -1.12796300   -0.83603300
Se   13.10040000    4.18994000    3.64502000      0.772994    0.57586300    0.69753300
Se   13.54737000    4.61151000   12.92427000     -1.400072   -0.60695200   -0.32658600
Se   12.98286000   10.24345000    3.67295000      0.222562   -0.32118000   -0.43691900
Se   12.77602000   10.44284000   13.73352000      0.367735   -0.79112000   -0.11433400
Se   12.88514000   15.63710000    3.53359000     -0.248679    0.31137000    0.19601300
Se   13.07681000   16.36376000   13.71690000     -0.468702   -0.91150600   -0.86531800
Se   12.49113000   21.95180000    3.49604000      1.330334    1.22214500    1.43167600
Se   13.07674000   21.81561000   13.25026000     -1.044264    0.98059400   -0.55175100
Se   19.14820000    4.26372000    3.29980000      0.778585   -0.30084600    0.77829500
Se   18.97994000    4.42299000   13.12721000     -0.469927    1.18211500    0.17236700
Se   18.78266000   10.31050000    3.57680000      0.944186    0.33952700    0.20437700
Se   18.60519000   10.54517000   13.35740000      1.062011    0.03564000    0.51361100
Se   18.60411000   16.02127000    3.64952000      0.555072   -0.79537800   -0.05853200
Se   18.93104000   16.31749000   13.42716000     -0.451634   -0.06712100   -0.92838600
Se   19.01714000   22.05097000    3.92522000     -0.355305   -0.46602900   -0.34920000
Se   18.92675000   21.89903000   13.60332000      0.646146   -0.11632500    0.26926900
