384
23.23808000 23.23808000 19.51320000
Ge    5.89718000    5.62880000    9.82501000     -0.776517   -0.35495700   -0.16560600
Ge    6.19039000    5.65846000   19.50384000     -0.603911   -0.48156500    0.34511600
Ge    5.89966000   11.65270000    9.43429000     -0.646708   -0.56204700    1.52230900
Ge    5.36723000   11.34863000   19.49248000      0.470970    0.73877600    0.40187600
Ge    5.97947000   17.35115000    9.72649000      0.048332    0.83044000    0.92984600
Ge    5.46795000   17.38766000    0.12744000      1.145869    0.76851500   -0.65283400
Ge    5.74957000   22.92047000   10.24675000     -0.217630   -1.55370400   -0.97856000
Ge    5.75063000    0.09672000    0.00974000     -0.078702   -1.20900200   -0.43361400
Ge   11.74631000    5.64712000   10.02902000     -2.071258    0.99819100   -0.38314300
Ge   11.69517000    5.80020000   19.44762000     -1.168774   -1.15345500   -0.62246300
Ge   11.71440000   11.80168000    9.97833000      0.059481   -1.12696000   -0.98148400
Ge   11.61954000   11.34751000   19.33446000     -0.142841    0.12579900   -0.65750600
Ge   11.31311000   17.49968000    9.76825000     -0.024563    0.15265300   -0.45722300
Ge   11.92062000   17.26592000    0.05933000     -0.231281   -0.56385100   -0.83422700
Ge   11.03767000   23.02177000    9.72942000      1.522376   -0.00668600    0.11913200
Ge   11.72288000   23.14965000    0.01195000     -0.114724    0.05462000    0.04307500
Ge   17.66139000    6.01535000    9.77783000      0.947751   -0.35409100    0.09484300
Ge   17.44624000    6.04749000   19.49088000     -0.110472   -0.36704900    1.21092200
Ge   17.54175000   11.87393000    9.69725000     -0.554163    1.32372000    0.63398000
Ge   17.60627000   11.68418000   19.37250000      0.083773    0.89900000    0.11710200
Ge   17.31368000   17.84889000    9.47524000     -0.526471   -1.53496800    0.22558700
Ge   17.08985000   17.40474000    0.43051000     -0.247356    0.46228500   -0.63343700
Ge   17.37293000    0.28639000    9.80054000      0.297128   -0.21345700   -0.42186600
Ge   17.59178000   23.07007000   19.40382000      0.276539    1.11051200    0.04281600
Ge    0.01210000    5.87406000    9.53201000      0.514651   -0.89639400    0.17067800
Ge    0.58968000    5.85311000    0.22690000     -0.010522   -0.47375900   -1.32384100
Ge   23.19986000   11.71201000    9.59513000      0.557875   -0.18077100    1.18747200
Ge    0.13465000   11.75024000   19.41709000     -0.409813    0.61884000    0.33300100
Ge    0.04400000   17.07040000    9.64232000     -0.832625   -1.23950400   -0.16568300
Ge   23.08700000   17.83101000    0.17080000     -0.552198   -0.09299400    0.55919300
Ge   23.17470000   23.23202000    9.89718000      1.036974    0.13998700    0.02776300
Ge    0.17610000   23.17179000   19.47210000     -0.308896   -0.23197100    0.10661500
Ge    3.01675000    5.64531000    7.27495000     -0.142592   -0.07940600   -0.36686900
Ge    3.24820000    5.93312000   16.87477000     -0.370668   -2.04432600    0.74417600
Ge    2.89248000   11.98857000    7.17818000      0.853570   -0.27885000   -0.28708600
Ge    2.58454000   11.48363000   16.83893000     -0.028313    1.46181200   -0.14745700
Ge    2.99607000   17.13408000    7.36511000     -0.955362    1.13516300    0.65920200
Ge    2.37411000   17.31777000   17.30371000      0.432998    1.08013100   -1.05950000
Ge    2.96600000   23.03284000    7.54824000      0.569863    0.63283800   -0.26635800
Ge    2.84927000    0.36521000   16.71170000      1.002032   -0.58556400    1.23943400
Ge    9.11497000    5.89139000    7.28755000     -1.406581   -0.41718200    0.49293100
Ge    8.68589000    5.55514000   16.86978000      0.440624    0.49507500    0.34604400
Ge    8.85882000   11.36084000    7.54591000     -0.675028    0.22500000   -1.00712600
Ge    8.30133000   11.62966000   17.24021000      1.490515    0.46404900   -1.39521700
Ge    8.68559000   17.20838000    7.28334000      0.232702   -0.22272700   -0.13496500
Ge    8.75387000   17.27022000   17.48897000      0.010863   -0.01354600   -0.83495800
Ge    8.51265000   22.94693000    7.15967000      0.304184    0.23257500    0.74904600
Ge    8.92727000   22.71176000   17.36201000     -0.033594    1.92395100   -0.31216200
Ge   14.40317000    6.21696000    7.47678000      0.915760   -0.18057600    0.00451200
Ge   14.51115000    5.61142000   17.19167000      0.501461    0.66086500   -0.89795400
Ge   14.69883000   11.56001000    7.42107000     -0.662301    1.15531300   -0.91602800
Ge   14.66166000   11.61384000   16.97018000      0.590077   -0.68545000    0.58878300
Ge   14.21222000   17.69164000    7.24271000     -1.906397   -0.35036900   -0.78891000
Ge   14.53877000   17.49701000   17.06809000     -0.732017    0.10318300   -0.11159300
Ge   14.21214000    0.16293000    7.31892000      1.399739   -1.31862800    0.18027000
Ge   14.48419000   23.08632000   17.11273000     -0.355712   -1.05526300   -0.49768000
Ge   20.66129000    6.14835000    7.10947000      0.183293   -0.76537700    0.18087900
Ge   20.47343000    6.08235000   17.27416000      0.638120    0.28496700   -0.57892700
Ge   20.28266000   11.77166000    7.36834000     -0.252437   -0.23010500   -0.17920600
Ge   20.42029000   11.92921000   16.80658000     -1.145545   -0.03519000    0.43311800
Ge   20.24492000   17.40787000    7.29801000     -0.397015   -0.80912300    0.85932100
Ge   19.93743000   17.63983000   17.28596000      1.508084    0.39392000    0.63997400
Ge   20.49974000   23.11530000    7.46467000     -1.116077   -0.77127700   -0.63749900
Ge   20.19563000    0.09310000   16.87995000     -0.516516   -0.15123200    0.12178700
Ge    2.99969000    2.85280000    5.14986000      0.509669   -0.87207900   -0.53466000
Ge    2.82948000    2.67273000   14.41590000     -0.042313    0.39016000    0.52497200
Ge    2.81021000    8.62463000    4.90375000      0.293620    0.56683500   -0.39482800
Ge    3.06710000    8.72748000   14.51779000     -0.909098    0.15119400    0.16574700
Ge    2.79332000   14.74046000    4.74886000      0.278720   -1.53983300    0.99074500
Ge    2.86516000   14.49719000   14.72430000     -0.048025    1.20715900   -0.99134400
Ge    2.80524000   20.17436000    5.08457000      0.618921    2.50655300   -0.10416400
Ge    2.60794000   20.40844000   14.70828000      0.659810   -0.75485000    0.62215200
Ge    8.86120000    2.86989000    4.77919000      0.131770    0.06405500    0.79065400
Ge    9.04348000    2.84929000   14.76316000     -0.036470   -0.29351800    1.01997400
Ge    8.78548000    8.75516000    5.05127000     -0.320948   -1.16416500   -0.82972100
Ge    8.53791000    8.62838000   14.38433000     -0.933797    0.69256100    1.81382200
Ge    8.92100000   14.35788000    4.95857000     -0.390183   -0.62147500   -0.87517800
Ge    9.07853000   14.57303000   14.61699000     -0.194411    0.10847900    0.50546000
Ge    8.44114000   20.30004000    4.94507000      0.710559    0.12308100   -0.59911600
Ge    8.27705000   20.40296000   15.13642000      1.546591    0.30821100   -1.09046600
Ge   14.82074000    3.03394000    5.11545000      0.027498    0.09570100   -0.43361900
Ge   14.85722000    2.73636000   14.85589000      0.416302    0.15145300   -1.93905000
Ge   14.31632000    8.65120000    4.99849000      0.732713    0.25386800   -1.35955000
Ge   14.37485000    8.56944000   14.74274000     -0.045532    0.11841200   -0.85244200
Ge   14.27327000   14.49130000    4.81290000     -1.006919   -1.46583700    0.29967100
Ge   14.76951000   14.90718000   14.68440000     -2.018988   -0.60547200   -0.35392700
Ge   14.12408000   20.30386000    4.62006000      0.394280    0.57939600    1.16080700
Ge   14.53507000   20.03476000   14.43471000     -1.036557    1.15656500    0.34911700
Ge   20.62020000    2.81160000    4.81717000      1.039483    0.71928900    0.61157300
Ge   20.18868000    3.27776000   14.58596000     -1.646633   -0.98467900   -1.24384600
Ge   20.69677000    9.15530000    4.90117000     -0.151022   -1.35073800   -0.82640800
Ge   20.39523000    9.01864000   14.54917000     -0.704078   -0.74805200    0.09815400
Ge   20.34514000   14.69677000    4.89654000     -0.012319   -1.16491500    0.27904200
Ge   20.15358000   14.90272000   14.62318000      0.563577    0.14120300    0.31206300
Ge   20.42115000   20.52072000    4.95345000     -0.299945   -0.26587600    0.52421600
Ge   20.61741000   20.31619000   14.53650000      2.238585    0.09485900   -0.38996800
Ge    5.77713000    2.84710000    2.46495000     -0.545849   -0.10241100    0.41641500
Ge    6.06093000    2.44932000   12.66790000     -0.293333    0.41201900   -1.11962300
Ge    6.08933000    8.50652000    2.42262000     -1.151952   -0.00604100    0.32044100
Ge    5.79165000    8.81165000   12.02373000      0.018531   -0.91268200   -0.08950200
Ge    5.69906000   14.54360000    2.73344000      0.771237   -0.30213500   -0.74359100
Ge    5.91858000   14.24417000   12.21331000      0.365506    0.56170200   -0.24901600
Ge    5.57714000   20.53960000    2.64674000      0.854042    0.74071000   -1.51669800
Ge    6.04668000   20.04731000   12.54921000     -2.430501   -1.49953900   -0.86596700
Ge   11.62012000    2.63084000    2.51542000      0.370442    1.13834900   -0.31159800
Ge   11.76376000    2.68894000   12.08389000     -1.241375   -0.25289700   -0.67781500
Ge   11.46292000    8.51125000    2.25212000      0.161661    0.53623300    1.49189000
Ge   11.63035000    8.66364000   12.22541000      0.304485    0.37397000    1.88393600
Ge   11.39052000   13.92849000    2.08777000     -0.495844   -0.58986300    0.32119200
Ge   11.84798000   14.80993000   12.18341000     -0.409008   -0.82544300   -0.67495400
Ge   11.42107000   20.08789000    2.42349000     -1.162471    1.15228100    0.38618000
Ge   11.39022000   20.33757000   12.56339000     -0.614509   -0.60571800   -1.60980600
Ge   17.73903000    2.88127000    2.40900000     -0.102771    1.19392200   -0.18349400
Ge   17.22885000    3.09938000   11.77258000      0.589442    1.21065000    0.63664100
Ge   17.29430000    8.83468000    2.48308000      1.910582    0.47980400   -0.28891700
Ge   17.34736000    9.21801000   12.20893000      0.542072   -0.61015600   -0.11084200
Ge   17.48247000   14.41589000    2.48651000     -1.102102    0.14233300    0.36951100
Ge   17.56250000   14.95743000   12.10319000     -0.573531    0.20574200   -0.34356900
Ge   17.60244000   20.57791000    2.72704000      0.146388   -0.92416000    0.41352500
Ge   17.47796000   20.47017000   12.17277000      0.060693    0.18184200    0.37516400
Ge    0.08563000    2.59431000    2.33259000      0.509357    0.77306800    0.56395300
Ge   23.17861000    2.73864000   12.18488000     -1.735344    0.88388300   -0.12318100
Ge    0.06049000    8.97170000    2.10304000     -0.636087    0.03806200    0.70288800
Ge    0.07775000    8.55011000   12.19011000      2.090492    1.40491600   -1.20951400
Ge    0.07250000   14.49880000    2.51963000      0.403069    1.01900600   -0.77324100
Ge    0.30808000   14.54529000   12.08904000      0.024107    0.31877000    0.50451300
Ge    0.25397000   20.15419000    2.76140000     -1.542190   -0.35782700   -1.25794800
Ge    0.12469000   20.22232000   11.86680000     -1.157153    0.77956900    1.15537300
Se    1.75545000    1.44762000    1.04088000     -0.832643   -0.14819500   -0.07685700
Se    1.54467000    1.41485000   11.26447000     -0.102712   -1.10414000   -1.18354600
Se    1.80673000    7.85285000    0.78763000     -0.372519   -0.51237800    0.43767600
Se    1.56701000    7.45568000   10.64181000     -0.385501   -0.59890300    0.38623700
Se    1.68607000   13.34119000    1.02978000     -0.660585   -0.26594600    0.05029100
Se    1.72337000   13.11550000   10.77669000     -0.895327   -0.56879000    0.07381500
Se    1.63920000   18.84372000    1.32077000      0.206289    0.35380800    0.14301200
Se    1.35649000   18.38739000   11.05798000      1.359766    0.32786400   -0.21763700
Se    7.23934000    1.46559000    1.12192000      0.581375    0.47936000    0.30317800
Se    7.47277000    0.89349000   11.31306000     -0.362237    0.64227000    0.52002200
Se    7.64796000    7.13349000    1.26836000     -0.169954   -0.00955000   -0.35416200
Se    7.28324000    7.18131000   10.82113000      0.310785    0.85309600    0.60213400
Se    6.92803000   12.92953000    1.20429000     -0.797364   -0.08535600    0.10726800
Se    7.32261000   12.50703000   11.15806000     -0.287465    0.68332500   -0.07908600
Se    6.82278000   19.09330000    1.07606000      0.219440    0.18268600    0.72980900
Se    7.62318000   18.92993000   11.30798000     -0.346580   -1.31624700   -1.00864600
Se   13.17165000    1.34123000    1.25196000      0.379705    0.01304900    0.10938300
Se   12.83265000    1.02096000   10.81955000     -0.182724   -0.03942700   -0.07161400
Se   12.99841000    7.15652000    1.22628000      1.609472    0.23185400   -0.01736800
Se   13.09129000    7.25574000   11.17174000      0.967753   -0.72280300   -0.01787700
Se   13.12614000   12.57772000    1.17802000      0.001200    0.20141100   -0.29185800
Se   13.17156000   13.36303000   10.77763000      1.165681    0.49073700    0.52338700
Se   13.10520000   18.81908000    1.46678000      0.498197   -0.32964000   -0.21194800
Se   12.69513000   18.70566000   11.12450000      0.426296    1.19052400    1.01683800
Se   19.10286000    1.58273000    1.04258000      0.028438   -1.08935200   -0.90745700
Se   18.94590000    1.94079000   10.64457000     -0.385447   -0.73802900   -0.21665600
Se   18.90277000    7.51385000    1.16121000     -0.373955    0.17223900    0.17687300
Se   19.02367000    7.68083000   11.08457000     -1.053763   -0.15218400   -0.25010800
Se   19.08089000   13.29898000    1.00557000     -0.471926    0.04047800    0.15991700
Se   19.02460000   13.41521000   11.00961000     -0.575894   -0.64072900   -0.33247500
Se   18.65993000   18.54173000    1.95606000      0.158246    0.54513700   -0.61988600
Se   18.89105000   19.12139000   10.78369000      0.090383   -0.25395600   -0.14811700
Se    4.45284000    4.66840000    1.47322000      0.869011   -0.49058600   -0.26383100
Se    4.63441000    4.25493000   11.41347000      0.315467   -0.59633000   -0.07072500
Se    4.18619000    9.65054000    1.24183000      0.973349    0.34659700    0.16951300
Se    4.33519000    9.86382000   10.51296000     -0.069222    1.01050200   -0.35184200
Se    4.21924000   16.01712000    1.37744000     -0.871270   -1.34553500    1.28517300
Se    4.54089000   15.72604000   10.78892000      0.192545   -0.06738700    0.54114700
Se    4.24339000   22.07689000    1.35177000     -0.405342   -0.16570300    0.03026200
Se    4.29973000   21.05067000   11.19123000      1.137441    1.00652300   -0.27697500
Se   10.28397000    4.27086000    1.13977000      0.286172   -0.42725200    0.54007700
Se   10.05174000    4.00887000   10.55036000      1.319174    0.14353100    0.88303800
Se   10.15516000   10.21806000    1.42308000     -0.548942    0.30510700   -1.04191500
Se   10.41400000   10.07556000   10.96019000     -1.467598    1.14227900   -0.80235700
Se   10.30392000   15.62992000    0.77799000     -0.246481    0.06797100    0.39289800
Se   10.16771000   15.77142000   10.80184000     -0.707731   -0.23030600    0.30495300
Se   10.13098000   21.67364000    0.96852000      0.066252   -0.24821200    0.51557100
Se    9.74896000   21.55489000   11.08481000      0.426857   -0.30896300    0.17722100
Se   16.20874000    4.38308000    1.27435000      0.212750    0.10137000   -0.07648600
Se   15.84032000    4.59585000   10.43551000      0.987942   -0.45447000    0.93299200
Se   16.16992000   10.57453000    1.38451000     -0.626598   -0.02202400   -0.11868300
Se   15.86984000   10.55968000   10.84752000      0.402981   -0.04548800    0.32344700
Se   15.61981000   16.17823000    1.83998000      0.965549   -1.21008000   -0.44029400
Se   15.85883000   16.26130000   10.97516000      0.820276    0.11502200   -0.44523000
Se   16.23698000   21.89918000    1.45479000     -1.057009    0.43100900   -0.74332600
Se   15.97264000   21.85824000   10.89231000      0.185599    0.07977400    0.29194800
Se   22.13490000    4.56616000    1.29448000      0.077696   -0.53286500    0.41220100
Se   21.72381000    4.16684000   10.60758000      0.985503    0.25990100    0.46727200
Se   21.71398000   10.66624000    1.22777000      0.871894   -0.60119000    0.07866400
Se   21.94538000   10.18433000   11.18027000     -0.292876    1.11272300   -1.07219600
Se   21.88532000   16.20352000    1.48177000     -0.419383   -0.46129500    0.36504800
Se   21.77784000   15.50223000   10.87341000      0.668659    1.08096100   -0.54808500
Se   22.05984000   21.72748000    1.49233000      0.268609    0.28197500   -0.65960400
Se   21.64141000   21.79934000   10.96354000      0.629891   -0.51316000    0.16075900
Se    1.41760000    4.20347000    8.24313000     -0.684647    0.47838200    0.85421800
Se    2.08334000    4.34359000   18.43207000     -0.523962    1.03825700   -0.16749700
Se    1.56435000   10.39463000    8.30674000     -0.213199   -0.19297700    0.44253100
Se    1.11891000   10.10645000   18.01476000     -0.114969   -0.29562200    0.20776200
Se    1.37173000   15.54375000    8.20192000      0.077627    1.04992700    0.45560400
Se    0.57473000   16.18242000   18.24742000      0.559738   -1.07831600   -0.22997400
Se    1.50648000   21.68600000    8.73218000     -1.053934   -0.27347300    0.65132800
Se    1.47744000   22.04386000   17.84997000      0.077831   -1.00921900    0.97068100
Se    7.28916000    4.32851000    8.36474000      0.504933    0.23755300   -0.02695700
Se    7.47513000    4.00390000   18.29600000     -0.074372    0.22116400   -0.08031800
Se    7.05598000    9.94421000    8.40699000      1.142845   -0.30244600   -0.47728300
Se    7.05451000    9.96714000   18.36660000     -0.181954    0.37456200    0.02601400
Se    7.15495000   15.74955000    8.49547000      0.617515    0.00007200   -0.42221300
Se    7.25466000   15.97795000   18.79521000     -0.395762   -0.26685400   -0.14767000
Se    7.25276000   21.42676000    8.63731000     -0.208218    1.03049200    0.15957200
Se    6.98790000   21.56710000   18.33313000      0.584067    0.39918300    0.05789900
Se   13.36526000    4.60529000    8.78433000     -0.396471   -1.48802200   -0.53003700
Se   12.84988000    4.19957000   18.03890000      0.375389   -0.23205300    0.67823800
Se   13.24638000   10.27258000    8.70868000     -0.625238   -0.10739300    0.65688300
Se   12.95408000   10.02135000   17.75814000     -0.031550    0.46202000    0.46375000
Se   12.98267000   16.23862000    8.61503000      0.007488   -0.50087800   -0.16484500
Se   13.22649000   15.66561000   17.99186000     -0.212075    1.27685700    0.86033300
Se   12.93484000   21.83684000    8.58605000     -0.542641   -0.24951800    0.08844000
Se   12.92771000   21.58225000   18.19992000      0.397006    0.32137600   -0.05083000
Se   19.22973000    4.65868000    8.36670000     -0.286703    0.27230700    0.30446700
Se   18.73032000    4.73578000   18.08528000      0.288144   -0.97188200   -0.13680700
Se   18.74442000   10.29953000    8.55125000      0.971519   -0.63797400   -0.55722400
Se   18.74470000   10.34657000   17.81803000      0.587145   -0.05161000   -0.04940300
Se   18.54084000   15.91009000    8.38932000      0.154572    1.60522800   -0.07315300
Se   18.45981000   16.11042000   18.21993000     -0.805688    0.00768300    0.96210300
Se   18.65504000   21.88241000    8.60784000      0.589488    0.30521800   -0.59169500
Se   18.53549000   21.69936000   17.70836000      0.463768    0.19763600    0.53374400
Se    4.42454000    1.14235000    8.95637000     -0.128199    0.45892700   -0.15074200
Se    4.68096000    1.52403000   18.02686000     -0.985591    0.67601600   -0.54428600
Se    4.13702000    7.09313000    8.77524000      0.432140   -0.15118600   -0.03578900
Se    4.85508000    7.09135000   18.09322000      0.320978    0.89586900    0.34189100
Se    4.86316000   13.27167000    8.12860000     -1.232965    0.05081600   -0.13483100
Se    3.90942000   12.95628000   18.29602000      0.248806   -0.59054400   -0.08894600
Se    4.36443000   18.75533000    8.54185000     -0.095319   -0.43344500    0.16509900
Se    3.85713000   18.74781000   18.57875000     -0.203486    0.09087100   -0.49496500
Se    9.96739000    1.32349000    8.35421000     -0.579119   -0.28020100   -0.29688500
Se   10.43394000    1.38269000   18.20144000     -0.799090   -0.88980000   -0.00662300
Se   10.20725000    7.36918000    8.71689000      0.806009   -0.68453000    0.41870700
Se   10.06008000    7.08825000   18.27249000     -0.216444    0.26308600   -0.16334800
Se   10.17564000   12.97435000    8.61388000     -0.076576    0.39485800    0.21585100
Se   10.17613000   13.04702000   18.21916000     -0.382735   -1.34868500    0.18822800
Se    9.78435000   18.87942000    8.60462000      0.025387   -0.13812500   -0.16204800
Se   10.20822000   18.76658000   18.57033000      0.576652   -0.06396000    0.41700300
Se   15.75822000    1.61933000    8.65887000     -0.334761   -0.09175900   -0.61751800
Se   15.91798000    1.27351000   18.25857000      0.339972    0.27389900    0.62659400
Se   16.12183000    7.37584000    8.68900000     -0.418713    1.74607900   -0.62868100
Se   15.64737000    7.22141000   18.61340000     -0.636045    0.49609300   -0.67015700
Se   16.18855000   13.30167000    8.20119000     -0.259234   -0.53467200    0.37713200
Se   15.91779000   13.17263000   18.45534000      0.067753   -0.85450600   -0.24788100
Se   15.63663000   19.13639000    8.18330000      1.687084    1.36801400    1.00278400
Se   15.46766000   19.01329000   18.73902000      0.751053   -0.73106800   -0.10805500
Se   21.67058000    1.42620000    8.67336000      0.840190    0.89282800    0.52698600
Se   21.96119000    1.25567000   17.96732000     -0.079795    0.82206900    0.92445400
Se   22.06422000    7.56923000    8.38727000     -0.196440    0.05933100    0.06594500
Se   22.09532000    7.34077000   18.56244000     -0.059875   -0.67010500   -0.07380300
Se   21.66389000   13.26787000    8.57138000      0.137748   -0.16228700    0.30551200
Se   21.71007000   13.21734000   18.37582000      0.017891    0.30464000   -0.29009400
Se   21.76912000   18.60454000    8.68510000     -0.110218    0.72558000   -0.09767200
Se   21.16877000   19.03783000   19.04628000     -0.369610    0.32691100   -0.73491100
Se    1.50063000    1.43223000    6.51195000      0.432205   -0.04750600   -0.33661300
Se    1.09644000    1.47750000   15.65140000      0.646638    0.43108100   -0.55050200
Se    1.39296000    6.83304000    5.77451000      1.115693    0.44814100    0.22828500
Se    1.62046000    7.23932000   15.91462000     -0.130828    0.86946100   -0.56771900
Se    1.22012000   13.34306000    6.16430000      0.920565   -0.08552000   -0.57947000
Se    1.19908000   12.95499000   15.33349000      0.136368   -0.30098900    0.92338900
Se    1.47144000   18.96458000    6.43852000     -0.647397   -1.11997800    0.60239500
Se    0.98025000   18.92787000   16.03148000      0.998463    0.20046000   -0.38614400
Se    7.28053000    1.45722000    6.00451000      0.131775    0.01092000    0.00421100
Se    7.62206000    1.20087000   15.99211000      0.581206    0.03181400    0.00147400
Se    7.37809000    7.13888000    6.18461000      0.354770    0.31160200   -0.12452200
Se    7.12170000    6.98794000   15.62476000      0.919058    0.15618300   -0.00212700
Se    7.40224000   13.30575000    6.44421000      0.556183   -1.06904500   -0.10012700
Se    7.36890000   13.27280000   15.62128000     -0.542800   -0.42890700    0.75877200
Se    7.21719000   18.78206000    6.19459000     -0.915731   -0.56938900    0.39822200
Se    7.17160000   18.68801000   16.16425000     -0.598280   -1.15188400    0.70229400
Se   13.05444000    1.52507000    5.86718000     -0.147978    0.92071200   -0.07245600
Se   13.18129000    1.37239000   15.73026000     -0.052318   -0.35192500    0.44653200
Se   12.86380000    7.18844000    6.00662000     -0.960682   -0.26563000    0.38030000
Se   12.94790000    6.98932000   15.82184000      0.612862   -0.12780600    0.15938200
Se   12.91350000   12.76278000    6.03420000      1.410565    0.44189000    0.16645700
Se   13.39663000   13.42981000   16.16381000     -0.310545    0.22228700   -1.00642600
Se   12.65513000   19.23878000    6.04289000     -0.294238   -1.11272400    0.58069800
Se   12.83781000   18.68208000   15.48256000      0.946055   -0.21759700    0.91136600
Se   19.17622000    1.47388000    6.14372000     -0.288146   -0.13010000    0.21224600
Se   18.69690000    1.67542000   15.88027000      0.489612    0.27855600   -0.26811600
Se   19.28390000    7.37576000    5.73267000     -0.684053    0.63447400   -0.08441900
Se   19.07356000    7.47011000   15.88092000      0.133753    0.16783800   -0.05298300
Se   18.78193000   13.14486000    6.12082000      0.812094    0.35493200   -0.32788200
Se   18.63228000   13.29304000   15.70942000      1.137648    0.09754100    0.00023900
Se   18.91665000   18.86613000    6.12075000     -0.319769    1.12085900   -0.47724700
Se   19.11044000   18.98028000   15.55945000     -2.294121   -0.56990900    0.72460400
Se    4.64663000    4.04587000    6.43438000     -0.443050    0.27840800   -0.29254600
Se    4.39422000    4.17362000   15.64308000     -0.320559   -0.16103200   -0.17333200
Se    4.30903000   10.33654000    5.99266000     -0.974212   -0.21377100    0.04605600
Se    4.29639000   10.37612000   15.75071000      0.654305   -0.55830100   -0.06998300
Se    4.37387000   16.09805000    5.88260000      0.953844   -0.45903700   -0.45071800
Se    4.06100000   16.14751000   16.05844000     -0.185585   -0.55000900    0.22924400
Se    4.42320000   21.75967000    6.14900000     -0.614633   -0.23446500    0.09476900
Se    4.21061000   21.64881000   16.20859000     -0.762629   -0.12727800   -1.03217000
Se   10.49639000    4.57924000    5.92798000     -0.189110   -1.08387800   -0.37254200
Se   10.57862000    4.39132000   15.89899000     -1.318199   -0.34902500   -0.47850100
Se   10.38144000   10.16386000    6.01301000     -0.171151    0.41498000    0.63686800
Se    9.77070000   10.36407000   15.43407000      0.017174    0.02762800    1.02683100
Se   10.32504000   15.84649000    6.08644000      0.548415    0.73378900    0.29662500
Se   10.35133000   15.77895000   16.33133000     -0.588356    0.37897100   -0.44054100
Se   10.14875000   21.57777000    5.95793000     -0.321036    0.38774000    0.28649500
Se   10.35013000   21.30108000   16.06222000     -0.837762    0.06609900    0.13640600
Se   16.00760000    4.90586000    6.33054000      0.019316   -1.03767400   -0.57992200
Se   16.23894000    4.54648000   15.70058000     -0.886799   -0.25412200    0.35778000
Se   15.89061000    9.86414000    6.18728000      0.640758    0.51632100    0.35311300
Se   16.04604000    9.81713000   15.80038000     -0.176414    1.10395600    0.66062500
Se   15.34217000   16.34744000    5.70090000      1.221573    0.14118300    0.04816400
Se   16.18046000   16.26190000   15.79696000      0.972892    0.96379200    0.62093400
Se   15.54629000   21.79020000    5.82575000      0.053257    1.03191700    1.13571900
Se   15.79573000   21.28979000   16.05355000      0.183261    0.48801000   -0.35594400
Se   22.13926000    4.75912000    5.77806000     -0.674810   -0.95912900   -0.06124700
Se   21.68124000    4.44625000   15.82691000      0.997892    1.00456000    1.01667600
Se   22.03151000   10.43784000    6.36656000     -0.214925   -0.00337900   -0.17989900
Se   21.86107000   10.42778000   15.63547000      0.757838    0.51587400    0.38934200
Se   21.77600000   16.12907000    6.11879000      0.442147   -0.41285300   -0.24302000
Se   21.55307000   16.21820000   16.24254000     -0.406196   -0.66463100   -0.74231100
Se   22.06381000   21.71646000    6.27382000     -0.577504   -0.15198800   -0.05004200
Se   21.84842000   21.85328000   16.13532000      0.021981   -0.83864300   -1.28393900
Se    4.46584000    1.23344000    3.80710000     -0.309206    1.09542400    0.07277000
Se    4.43662000    0.95143000   13.71241000     -0.011658    0.73043400   -0.19282200
Se    4.59772000    7.23487000    3.88332000     -0.456882    0.10342900   -0.01106400
Se    4.44920000    7.23541000   13.35691000      0.053648   -0.14167900   -0.39566800
Se    4.24420000   12.98374000    3.93265000      0.136064    0.72994700   -0.34702300
Se    4.41673000   13.03498000   13.60947000      0.011046   -0.18991900   -0.15548000
Se    4.23669000   19.04341000    3.66630000     -0.533466   -2.14772600    0.08981300
Se    4.38470000   18.76277000   13.83711000     -0.444275    0.21244000    0.09007800
Se    9.87024000    1.23031000    3.38058000      0.573816    0.03351300    0.15607500
Se   10.25595000    1.41464000   13.41807000      0.207065   -0.83310800   -0.31192200
Se   10.04361000    7.14072000    3.57525000     -0.110156    0.43855000    0.50806300
Se    9.66883000    7.35896000   12.92066000      1.454213   -1.02562400   -0.91614700
Se    9.84512000   12.55138000    3.48311000      0.356213    1.25793200   -0.00816700
Se   10.41769000   13.22450000   13.22663000     -0.041012   -0.71576000    0.20337700
Se    9.36996000   18.87696000    3.29060000      1.088194    0.19438600   -0.25744900
Se    9.79302000   18.93187000   13.65010000     -0.133992    0.27176400    0.30336900
Se   16.23904000    1.57448000    3.63860000     -0.421073   -0.19776800    0.85794700
Se   16.34980000    1.43849000   13.13300000     -0.830050    0.00539500    1.13516600
Se   16.01122000    7.38614000    3.63831000     -0.906395   -1.20139100    0.91766700
Se   16.13064000    7.47184000   13.30827000     -0.495151    0.05669500    0.29815800
Se   16.09257000   13.10298000    4.18744000      0.478557    0.03195600   -0.81677500
Se   16.08703000   13.49425000   13.42076000      0.424650   -0.46736900   -0.44650700
Se   16.01323000   19.19315000    3.90884000      0.516167   -1.09340800   -0.52899200
Se   16.03102000   18.75011000   13.18959000      0.493112    0.23621200   -0.39265800
Se   22.07639000    1.16212000    3.87563000      0.124685    0.37877300   -0.58313700
Se   21.51751000    1.48991000   13.52781000      0.275013    0.56430300   -0.14774400
Se   21.79794000    7.51649000    3.37049000      0.359216    0.54112300    0.10874800
Se   21.73798000    7.47200000   13.31124000     -1.387042   -1.79271400    1.10455400
Se   22.08007000   13.19170000    4.01201000     -0.694302   -0.30465000    0.09027300
Se   21.87820000   13.48809000   13.57360000     -0.148866   -0.48510900    0.14531100
Se   21.43489000   18.93397000    3.50797000      0.809797    0.20431900    0.07265000
Se   21.91407000   18.64155000   13.06838000     -0.284127    1.51545700    0.61450600
Se    1.65203000    4.13438000    3.59078000     -0.276811   -0.34439000    0.03033500
Se    1.33232000    4.22192000   13.33472000      0.547614    0.67934900    0.04989500
Se    1.32793000   10.27194000    3.67061000      0.527943   -0.48732500    0.23431400
Se    1.43629000   10.13464000   13.42319000      0.231848   -0.51867100   -0.05085100
Se    1.41002000   16.20971000    3.75279000     -0.839843    0.20005600   -0.95457600
Se    1.74977000   16.19455000   13.16252000     -0.013996   -1.19825400    0.51491100
Se    1.41207000   21.81270000    3.76244000      1.043148    0.02279200    1.22500400
Se    1.42659000   21.93030000   13.23688000     -0.237898   -1.02141000   -0.14186400
Se    7.33159000    4.25296000    3.64558000     -0.155705    0.41355100   -0.09616300
Se    7.34828000    4.12403000   13.76234000     -0.283852    0.19494700   -0.24641900
Se    7.28208000   10.08857000    3.73323000      0.206298    0.60134500   -0.09684000
Se    6.92888000   10.16930000   13.59126000     -0.070416    0.11641100   -0.42812100
Se    7.54434000   15.96755000    3.72938000     -0.733477   -0.76801300   -0.28045800
Se    7.40374000   15.81578000   13.40445000     -0.341819    0.18806400   -0.21273400
Se    6.87532000   21.89097000    4.08618000      0.346581    0.19976700   -0.17976200
Se    6.85618000   21.75935000   13.68803000      1.489538    1.74896900    1.68154700
Se   13.18818000    4.21096000    3.80875000     -0.657693   -0.19933400   -0.70254500
Se   13.38119000    3.91932000   13.14771000      0.806776    1.10269100    0.73374700
Se   13.10239000    9.97446000    3.49309000     -0.608657   -0.00983100   -0.23527200
Se   12.95503000   10.24131000   13.67919000     -0.222593   -1.18737100   -0.44143900
Se   12.75478000   15.41926000    3.22382000      0.317128    1.13455100    0.68861600
Se   12.81538000   16.17739000   13.74253000      1.021558    0.51804300    0.40559700
Se   12.91845000   21.83029000    3.43099000     -1.078240   -0.08559300   -0.81270600
Se   13.11094000   21.73373000   13.17885000      0.885841   -0.01488300    0.68639600
Se   19.52325000    4.31313000    3.38010000     -0.866979   -0.28075000   -0.22150100
Se   18.82052000    4.72423000   12.92160000     -0.007140   -0.97352400    0.78065500
Se   18.93723000   10.23181000    3.75355000     -0.375420    0.74530500   -0.40760400
Se   18.84010000   10.52868000   13.63356000     -0.352241    0.10641500   -0.71466900
Se   18.86139000   15.99000000    3.65735000     -0.084268    0.31714200   -0.15275600
Se   19.19660000   16.42626000   13.02193000     -0.399149   -0.08743900    0.29214000
Se   18.79378000   22.08096000    4.08508000      0.475208    0.08642900    0.11895100
Se   19.16390000   21.83661000   13.50970000     -1.048862    0.06339900   -0.77601600
