384
23.23808000 23.23808000 19.51320000
Ge    5.84091000    5.72429000    9.80078000      0.227996    0.43967000    0.49708800
Ge    6.12180000    5.61987000   19.50179000      0.731500    0.86830000    0.12050100
Ge    5.94163000   11.74259000    9.69212000     -0.838116   -1.03713100    0.08956500
Ge    5.37809000   11.45225000   19.44839000      0.569339   -0.15361400    0.71025200
Ge    6.03266000   17.59767000    9.78876000     -0.293409   -1.40596600    0.06911100
Ge    5.51139000   17.32748000   19.49964000     -0.745846   -0.14741400    0.11509300
Ge    5.66685000   22.82567000   10.11100000      1.150156    0.04064800   -0.38551300
Ge    5.72297000   23.11801000   19.45583000      0.172335    0.98325600   -0.30494500
Ge   11.44675000    5.54291000   10.09403000      0.710227    2.13605000   -1.49677600
Ge   11.57769000    5.68638000   19.26243000      0.411432    0.63892900    1.02895500
Ge   11.61421000   11.89326000    9.97404000      0.481142    0.00534900   -0.32241900
Ge   11.48673000   11.21336000   19.22939000      1.085686   -0.39798500    0.52281800
Ge   11.42133000   17.53081000    9.62120000     -0.155283   -0.27177000    1.38916100
Ge   11.94901000   17.09832000   19.50812000     -1.269964    1.54954800    1.53167100
Ge   11.28389000   23.09432000    9.84019000     -0.195455   -0.49277400   -1.14916500
Ge   11.73957000   23.15422000    0.02923000      0.603829   -0.40208100   -0.15788800
Ge   17.76486000    6.09391000    9.62992000     -1.051919    0.92128600    0.42540600
Ge   17.58223000    6.01013000    0.22325000     -0.218069    0.51662500   -1.78670200
Ge   17.40005000   12.20519000    9.75423000      0.023735   -1.58585200   -0.32840000
Ge   17.54802000   11.94135000   19.48975000      0.201477   -0.70305200   -0.07741800
Ge   17.23750000   17.69930000    9.46004000     -0.274277    1.35794800   -0.22030000
Ge   17.11023000   17.43672000    0.42533000      0.269360    0.09911600   -0.07759500
Ge   17.36096000    0.23173000    9.61445000      0.057348    0.12976100    0.45199000
Ge   17.61279000    0.05772000    0.04128000     -1.400286   -0.26069100   -0.76454400
Ge    0.06273000    5.73405000    9.46359000     -0.465609    0.76602100    1.12711300
Ge    0.55638000    5.87899000    0.06487000     -1.811702    1.01849700    0.21360400
Ge    0.08189000   11.55006000    9.58649000      0.058439   -0.20292800   -0.47914100
Ge   23.22661000   11.81482000    0.08633000      0.066335    0.33374300   -0.99677700
Ge    0.06272000   16.94876000    9.52411000      0.463350    1.61213700   -0.08923300
Ge   22.93690000   17.95441000    0.35677000      0.470332   -1.13570500   -0.74834300
Ge   23.23611000   23.15694000    9.83542000     -1.280977    0.71189000   -0.10958200
Ge   23.20616000   23.14783000   19.43951000     -0.089766   -0.28064600    0.08826900
Ge    3.12626000    5.51628000    7.24290000     -0.504746    0.80973700    0.35721700
Ge    3.18273000    5.66256000   16.85301000      0.118837    1.56840300    0.38607500
Ge    3.08342000   11.97689000    7.19615000     -0.880526   -0.88383500   -0.67785700
Ge    2.55036000   11.64458000   16.83358000      0.874451   -0.51887100    0.35088300
Ge    2.94113000   17.19993000    7.40592000      0.116442    0.64078900   -0.91603100
Ge    2.47972000   17.45052000   17.16425000     -0.670373    0.16355700   -0.36918900
Ge    3.08032000   23.09816000    7.51702000     -1.035637    0.00354500   -0.38579900
Ge    2.94278000    0.32088000   16.71844000     -1.634618   -0.17738400    0.57666000
Ge    8.97799000    5.70467000    7.26941000     -0.230161    0.06198100   -0.30816300
Ge    8.66827000    5.58436000   17.04645000      0.009439   -0.27741800   -0.00299200
Ge    8.82476000   11.38541000    7.40149000      0.606989   -0.18374400    0.26000900
Ge    8.44829000   11.68478000   17.12697000      0.082656   -0.24826600    0.37265200
Ge    8.70456000   17.15950000    7.28417000     -0.363210    0.07357500   -0.27633200
Ge    8.81609000   17.34048000   17.37111000     -0.747328    0.31366200    0.76905800
Ge    8.51382000   23.11045000    7.29298000      0.507483    0.01374800   -0.65435700
Ge    9.04310000   23.04457000   17.28712000     -0.896672   -0.91144400   -0.47412000
Ge   14.56386000    6.17646000    7.42542000     -0.216606    0.01489600    0.26375900
Ge   14.74724000    5.76542000   17.08954000     -0.636578   -0.08464500    0.96348300
Ge   14.55281000   11.60396000    7.38080000     -0.077396   -0.52123600   -0.16624800
Ge   14.66887000   11.62853000   17.00601000     -0.562788    1.09441100    0.87579600
Ge   13.97329000   17.78873000    7.14083000      2.144565   -0.96399400    0.43068900
Ge   14.52349000   17.36555000   16.97780000      0.414460    0.82364700    0.53253400
Ge   14.12154000    0.15318000    7.24215000     -0.880429    1.20103600    0.53752900
Ge   14.44909000   23.07341000   17.12952000      0.875990    0.68804400    0.35895600
Ge   20.78402000    6.08052000    7.18368000     -1.079195    0.46224800    0.08142400
Ge   20.59453000    5.96799000   17.13503000     -0.375734   -0.53501100   -0.33857200
Ge   20.25054000   11.58110000    7.46354000      0.246276    1.11828800   -0.67314100
Ge   20.33164000   11.81698000   17.02117000      1.227097    0.74531800   -0.47809000
Ge   20.08834000   17.54957000    7.30834000      1.094152    1.13925200   -1.27695300
Ge   19.97358000   17.87985000   17.49345000      0.189700   -0.97677800   -1.11724900
Ge   20.31077000   23.03573000    7.33120000      0.119362    0.62679500    0.80664100
Ge   20.24331000    0.07601000   16.86893000      0.066041   -0.20195100    0.20801000
Ge    3.13114000    2.65461000    4.97285000     -1.407835    0.62517100    0.53944300
Ge    2.88130000    2.70419000   14.42658000      0.469806    0.89328700   -0.39016800
Ge    2.77827000    8.66038000    4.91529000      0.284875   -0.46943600   -0.38875200
Ge    2.97334000    8.74223000   14.50990000      0.577586    0.35695200   -0.26448400
Ge    2.84322000   14.63828000    4.68035000      0.157864    1.14516500    0.22911800
Ge    2.96670000   14.66302000   14.63132000      0.154518   -1.55216400    0.35666500
Ge    2.78192000   20.42374000    4.99492000      0.723006   -2.09771900    0.81229500
Ge    2.66735000   20.38726000   14.73785000     -1.289506    0.08393200   -1.01571000
Ge    8.88457000    2.87228000    4.80649000     -0.351238   -0.24508600   -0.87138000
Ge    9.10922000    2.81376000   14.81542000     -0.301715   -0.23095400   -0.91178400
Ge    8.74977000    8.56900000    4.99222000     -0.076710    1.63509300    0.46944800
Ge    8.37757000    8.68836000   14.60324000      1.115451    0.19976100   -0.72138700
Ge    8.90121000   14.30656000    4.76058000      0.151893    0.54301400    1.36113900
Ge    9.10891000   14.54855000   14.66606000     -0.395074   -0.28989000   -0.38147500
Ge    8.52837000   20.43441000    4.95775000     -0.200822   -0.68114000   -0.15591200
Ge    8.27733000   20.46614000   15.03791000     -0.479886   -0.52176300   -0.00825100
Ge   14.84600000    3.08358000    5.09664000     -1.127931   -0.42167700   -0.38607700
Ge   15.00377000    2.57130000   14.76336000     -0.954149    0.20511600   -0.22354000
Ge   14.35895000    8.74258000    4.98089000      0.138546   -0.92118500   -0.14792500
Ge   14.42326000    8.45669000   14.70575000      0.434951    0.46203200    1.01764600
Ge   14.23531000   14.29257000    4.59915000      0.748459    1.26056100    0.23970700
Ge   14.51751000   14.82781000   14.58650000      2.317209    0.32098600    0.10461300
Ge   14.35931000   20.25072000    4.72289000     -0.989340   -0.36477700    0.17342600
Ge   14.61021000   20.28170000   14.51732000      1.013960   -1.27665100   -0.21275200
Ge   20.80146000    2.86137000    4.99087000     -0.907055   -0.07113900    0.03059100
Ge   20.17189000    3.27355000   14.37574000      1.012788    0.04110100    0.49188100
Ge   20.61596000    8.89882000    4.86928000     -0.918521    0.69561100    0.56486500
Ge   20.33968000    8.79292000   14.59812000      0.563907    0.65488000    0.51011800
Ge   20.39145000   14.51990000    4.99009000      0.425283    1.21061600   -0.63631100
Ge   20.29806000   15.12862000   14.64765000      0.089439   -0.41477800    0.10380800
Ge   20.40219000   20.45920000    4.92288000      0.045163    0.29416400    0.45988400
Ge   20.72710000   20.19637000   14.44156000     -3.170238    0.48914200    0.68491300
Ge    5.86976000    2.85906000    2.37138000      0.662767   -0.01038500    0.14463500
Ge    6.04962000    2.64647000   12.58431000     -0.155323   -0.23588000   -0.63684400
Ge    5.87141000    8.54873000    2.34848000      0.447214   -0.23919800    1.06154200
Ge    5.76355000    8.51107000   12.10260000     -0.263516    1.24258700   -0.10559300
Ge    5.81224000   14.59034000    2.59019000      0.239499   -0.84888900   -0.32345300
Ge    6.07833000   14.41938000   12.10663000     -0.746356   -0.25750100    0.98238800
Ge    5.78024000   20.51452000    2.39412000     -0.897023   -0.05592500    1.43260200
Ge    5.82623000   19.95209000   12.55779000      1.429117    1.51267500    0.04132400
Ge   11.61833000    2.96985000    2.38478000     -0.311682   -1.66000000   -0.13600000
Ge   11.60933000    2.51380000   11.96768000      1.403421    0.29326500    1.12614700
Ge   11.42222000    8.40905000    2.42246000      0.749429    0.60445600   -0.42930500
Ge   11.68513000    8.57726000   12.30583000     -0.334354   -0.20120800   -1.02769500
Ge   11.36557000   13.85738000    1.91382000      0.318733    0.91002000    0.92678300
Ge   11.83505000   14.56060000   12.03706000      0.239677    0.59422800    0.56699200
Ge   11.29859000   20.28966000    2.40097000      0.184195   -2.25250400   -0.06173300
Ge   11.36163000   20.22135000   12.34621000     -0.165653    0.09649200    1.31797300
Ge   17.69162000    3.14654000    2.51105000      0.033914   -1.55353800   -0.21986400
Ge   17.33435000    3.22734000   11.83136000      0.012117   -0.31200400    0.29741400
Ge   17.56119000    8.90752000    2.64485000     -1.416848   -0.08127100   -0.03328100
Ge   17.53705000    9.21717000   12.20326000     -0.862471   -0.44029600   -0.08354500
Ge   17.43554000   14.42714000    2.61219000      2.436802    0.29498500   -0.11299400
Ge   17.46581000   14.97100000   12.03559000      1.061799   -0.11919900    0.46931200
Ge   17.56644000   20.37812000    2.96952000     -0.874347    1.05032300   -0.75504800
Ge   17.44571000   20.47143000   12.24766000     -0.357111   -0.31131800   -1.66896400
Ge    0.05697000    2.70803000    2.46972000      0.639747   -0.25633000   -0.25541100
Ge   23.11866000    2.76563000   12.18947000      1.535430   -0.67682700    0.46474500
Ge   23.16838000    8.87569000    2.30701000      0.669992    0.27116200   -0.49774400
Ge    0.03640000    8.72537000   11.87937000     -1.456308   -1.02555200    0.46165900
Ge    0.17674000   14.49779000    2.43603000     -0.124458    0.21838200    1.22857600
Ge    0.35656000   14.46103000   12.08747000     -0.781237   -0.38450400    0.42294400
Ge    0.20973000   20.18862000    2.52215000      0.586725    0.53973900    0.43452500
Ge   23.19864000   20.25122000   12.02515000      1.285722   -0.28806300   -0.40469700
Se    1.54709000    1.34757000    1.01797000     -0.606248    0.34767400    0.43840600
Se    1.47298000    1.33664000   10.92048000     -0.011262    0.62766800    0.92350800
Se    1.52389000    7.99615000    0.60876000     -0.133179   -0.66884800    0.85702700
Se    1.49542000    7.10906000   10.83624000     -0.070434    0.32460700    0.26401800
Se    1.67947000   13.30415000    1.10959000     -0.090199   -0.62743500   -0.34723700
Se    1.60167000   13.07748000   10.52572000      0.576016   -0.02860400    0.85500800
Se    1.77622000   18.71909000    1.29738000     -0.849975    1.05146700    0.46413200
Se    1.50090000   18.52507000   10.92971000     -0.862678    0.39717700   -0.10003900
Se    7.40544000    1.62041000    0.80195000     -1.531032   -0.46547300    0.72055900
Se    7.34660000    0.76186000   11.51699000     -0.623924    0.65348500   -0.37385900
Se    7.61263000    7.07439000    1.33495000     -1.189075    0.32698600   -0.31564800
Se    7.39077000    7.20043000   10.98849000     -0.250247   -0.30378600   -0.39709700
Se    6.96755000   12.90289000    1.25808000     -0.426935   -0.37279600   -0.26793200
Se    7.45628000   12.75730000   11.19574000      0.414017   -0.14490100   -0.33016100
Se    6.91580000   18.94017000    1.09651000      0.713526   -0.54272100   -0.14053800
Se    7.51790000   18.70110000   11.37922000     -0.258260    0.00668200   -0.08795400
Se   13.07160000    1.51639000    1.21595000      0.804226   -0.47304000   -0.23306000
Se   13.03524000    1.02341000   10.78742000      0.053124    0.58405800    0.39678500
Se   13.03996000    7.06964000    1.19574000     -0.728370    0.19678100   -0.34762400
Se   13.10129000    6.92606000   11.15425000     -0.761409    0.52689700    0.57044100
Se   13.03038000   12.45095000    1.16913000      0.176043   -0.15897500   -0.66624300
Se   13.53401000   13.25731000   10.86012000     -1.582194   -0.11025100    0.23118500
Se   13.02468000   18.69587000    1.48545000     -0.641564    0.21505800   -0.02692400
Se   12.76115000   18.72507000   11.33803000      0.446102   -0.62498400   -1.14942700
Se   19.03155000    1.54718000    1.00807000      0.590004    1.03800600    0.79667400
Se   18.92218000    1.85577000   10.59760000     -0.584527   -0.14090500   -0.00802900
Se   18.92417000    7.65112000    1.12747000      0.779766    0.16707100    0.37872900
Se   19.00948000    7.88093000   10.81057000     -0.347825   -0.75073600    0.14461500
Se   19.15509000   13.45682000    0.95884000     -0.965759   -0.10130500    0.77115400
Se   19.03297000   13.44054000   10.95346000     -0.565434    0.11016300    0.00004500
Se   18.70253000   18.57896000    1.90319000      0.201294    0.04736800   -0.42405400
Se   18.73870000   19.13572000   10.59441000      0.220335    0.26611100    0.44861900
Se    4.56822000    4.58614000    1.31822000     -1.081994   -0.82917800    0.73935400
Se    4.57373000    4.26133000   11.28541000      0.313120   -0.55921300   -0.00476500
Se    4.09807000    9.68419000    1.17121000      0.847411    0.69253700   -0.24063200
Se    4.32731000   10.07280000   10.82512000      0.615420    0.21242400   -0.22541300
Se    4.12997000   15.74677000    1.40391000      0.382790    0.92876800   -0.53148800
Se    4.61257000   15.71515000   10.80753000      0.285392    0.82169300   -0.07532400
Se    4.19049000   21.97867000    1.42025000      0.079196    0.31658900   -0.57865100
Se    4.33210000   21.17352000   11.26630000     -0.689456    0.60829300   -0.95363800
Se   10.22218000    4.35236000    1.18128000     -0.940799    0.42442500   -0.25855600
Se   10.06232000    3.81983000   10.65313000     -0.585747   -0.50939900    0.59718200
Se   10.06455000   10.12998000    1.29234000     -0.210823   -0.74355600   -0.06155500
Se   10.21802000   10.24708000   11.08209000      0.932320   -0.13079000    0.21868800
Se   10.20783000   15.63336000    0.84819000      0.092231    0.21119900   -0.06982800
Se   10.13615000   15.90761000   10.92736000      0.395898   -0.08593800   -0.20212200
Se   10.12874000   21.70198000    1.01882000     -0.820704    0.60463300   -0.33076800
Se    9.88014000   21.58067000   11.14447000     -0.188352    0.45190800   -0.44056100
Se   16.23173000    4.40279000    1.13322000     -0.960711   -0.48296800    0.73369200
Se   15.87267000    4.72482000   10.47562000      1.278255   -0.33496500    0.72807500
Se   16.11051000   10.45531000    1.39936000      0.635074   -0.00964800   -0.31036600
Se   15.91844000   10.49663000   10.85521000      0.625647    0.34560700    0.23905300
Se   15.89361000   15.87547000    1.76076000     -1.313387    0.50180300   -0.81399100
Se   15.98592000   16.34510000   10.88009000     -1.263856   -0.53013100   -0.12281600
Se   16.20877000   22.01247000    1.48870000      0.089716   -0.66208400    0.21252300
Se   15.97102000   22.04998000   11.01424000      0.160216   -0.15979800    0.19535600
Se   22.14128000    4.55865000    1.35640000      0.067515   -0.05460300   -0.20184100
Se   21.91416000    4.01803000   10.71362000     -0.931710    1.22528900   -0.85638300
Se   21.74225000   10.51587000    1.33368000     -0.283177   -0.04694100    0.27721600
Se   21.70611000   10.31100000   10.77415000      0.785831   -0.70273500    0.66548800
Se   21.95901000   16.06142000    1.55445000     -1.551637    0.65915600   -0.60981300
Se   21.95786000   15.69274000   10.88952000     -0.648469   -0.18267900    0.39756800
Se   21.86824000   21.61950000    1.46262000      0.518533    0.83778700   -0.65652300
Se   21.65489000   21.64416000   10.90461000      0.144975    0.30175100   -0.15725900
Se    1.29655000    4.22501000    8.23987000      0.717628   -0.65644300   -0.27565400
Se    1.90673000    4.45981000   18.43318000      0.291037   -1.44757900   -0.51736800
Se    1.59785000   10.27171000    8.09748000     -0.156052    0.48745200    0.73647100
Se    1.09476000   10.15234000   18.11525000      0.219527    0.96641600    0.12788400
Se    1.38079000   15.51287000    8.13780000      0.326624    0.69549600    0.26655500
Se    0.57084000   16.30674000   18.17972000      0.718111    0.26288500    0.39197600
Se    1.41926000   21.72369000    8.75611000      1.017943   -0.78963900   -0.79343900
Se    1.43399000   22.00817000   17.92859000      0.003244   -0.03339500    0.56256400
Se    7.17946000    4.43027000    8.29775000      0.183792   -0.83487100    0.19127700
Se    7.45316000    3.99753000   18.46249000      0.449834    0.02769700   -0.74918400
Se    7.07105000   10.05982000    8.42689000      0.433983    0.03943900    0.03018400
Se    7.14825000   10.01743000   18.44553000     -0.143534    1.06977900   -0.33742500
Se    7.11194000   15.76644000    8.50319000      0.267493    1.07297200    0.03499800
Se    7.35430000   15.91725000   18.78950000     -0.348169    0.30356300   -0.23745200
Se    7.32840000   21.52090000    8.57206000     -0.806537    0.27897600    0.58104500
Se    7.15436000   21.50618000   18.51894000      0.868469    0.67837200   -0.71706800
Se   13.42952000    4.64307000    8.95852000     -0.515150   -0.56921900   -0.54255100
Se   12.81527000    4.15912000   18.03904000      1.710750    0.22831200   -0.38788000
Se   13.05208000   10.29173000    8.82204000      0.236181    0.25879500   -0.46933000
Se   13.03745000    9.97843000   17.88743000      0.171844    0.34949400   -0.01754400
Se   12.96596000   16.14111000    8.54337000      0.291356    0.09528500   -0.26756200
Se   13.10150000   15.77249000   18.10194000      0.806885   -0.79313200   -0.74688100
Se   12.88589000   21.81669000    8.48622000     -0.551678   -0.42540200    0.28377700
Se   12.96844000   21.57775000   18.08379000     -0.741916    0.13036700    1.12575900
Se   19.29390000    4.66868000    8.60825000      0.625714   -0.31031900   -0.66177200
Se   18.75247000    4.65831000   18.08996000      0.312838    0.16934300    0.48371400
Se   18.69428000   10.32229000    8.54081000     -0.953812    0.18275900    0.66092400
Se   18.82670000   10.37128000   17.91197000     -1.210481   -0.25995400    1.17905400
Se   18.69318000   16.19617000    8.42253000     -0.850224   -1.68646800    0.43112700
Se   18.40218000   16.24813000   18.34078000      0.520430   -0.27269000    0.11138900
Se   18.64272000   21.79485000    8.56105000      0.239864   -0.00911300   -0.37035400
Se   18.45459000   21.85814000   17.80273000      0.953769    0.41503100    0.31023800
Se    4.53033000    1.26219000    8.79053000      0.139849   -0.15851800    0.35465200
Se    4.56404000    1.50258000   17.86933000      0.614290    0.23268100    0.78629400
Se    4.15621000    7.15201000    8.86359000     -0.124587   -0.61078800   -0.75351100
Se    4.92060000    7.03884000   18.05371000     -0.812296    0.12707800   -0.37283200
Se    4.73835000   13.27643000    8.19232000      0.142491    0.25681600    0.67965900
Se    3.97466000   13.03698000   18.33971000      0.008254   -0.32529400   -0.40005400
Se    4.23634000   18.81525000    8.77606000     -0.220944   -0.27004700   -0.23193100
Se    3.79168000   18.90235000   18.47784000      0.936472   -0.44521100    0.32067900
Se    9.97889000    1.36846000    8.38326000      0.274621   -0.09512300    0.54312200
Se   10.33762000    1.40455000   18.36724000     -0.027275    0.35424700    0.07118400
Se   10.07040000    7.25659000    8.63333000      0.916778   -0.85676300    0.92765100
Se   10.03782000    7.13670000   18.19237000      0.072599    0.60553100    0.09467100
Se   10.00336000   13.12759000    8.62698000      0.290967   -0.47563700    0.12679000
Se   10.25757000   12.94324000   18.32299000     -0.956130   -0.05487000   -0.69153500
Se    9.80009000   18.88630000    8.57253000      0.074722   -0.01487300   -0.05573700
Se   10.26052000   18.67825000   18.75573000     -0.034765   -0.00806800   -0.51862400
Se   15.75099000    1.58871000    8.43304000     -0.134781   -0.18837900   -0.30196700
Se   15.86960000    1.45353000   18.31520000      0.041957   -0.82209400    0.17636400
Se   16.20477000    7.63842000    8.46275000      0.018225   -0.46294500   -0.05675500
Se   15.73788000    7.41098000   18.75634000      0.084626   -1.12037300   -0.66857800
Se   15.97504000   13.36322000    8.18297000      0.122180    0.12362600    0.31569700
Se   15.87350000   13.34135000   18.49201000     -0.142385   -1.18010200   -0.50577300
Se   15.75565000   19.28065000    8.27807000     -0.354135   -1.08602200   -0.11608700
Se   15.65629000   18.83957000   18.70449000     -0.482793    0.20409700   -0.34516300
Se   21.63926000    1.40115000    8.62176000      0.274071   -0.90889500    0.08520800
Se   21.79697000    1.41977000   18.21581000     -0.472252   -0.18714400   -0.04651700
Se   22.08102000    7.65543000    8.57764000     -0.406314   -1.24672900   -0.52102200
Se   22.00590000    7.33130000   18.39354000      0.582317   -0.44914000    0.42398700
Se   21.63286000   13.02551000    8.77318000     -0.040550    0.41074300   -0.33564500
Se   21.58318000   13.33173000   18.47375000      0.486919   -0.60774300    0.04764800
Se   21.83323000   18.64345000    8.53572000      0.329711    0.15302900    0.28333200
Se   21.01850000   19.23770000   19.15277000      0.581882    0.32254300   -0.32935200
Se    1.40444000    1.43812000    6.49098000      1.813075   -0.25188800   -0.60222800
Se    1.18723000    1.56924000   15.52818000      0.528932   -0.62016700    0.69533300
Se    1.45488000    6.93126000    5.94136000      0.789325   -0.08943300    0.27472000
Se    1.65127000    7.20544000   15.70570000     -0.307838   -0.45477000    0.62963600
Se    1.41311000   13.38905000    6.05852000      0.343601   -1.18298700    0.29479500
Se    1.09813000   12.89691000   15.44776000      0.978810    0.91243100   -0.13092600
Se    1.35316000   18.92090000    6.37409000      1.003624   -0.08266000   -0.14035100
Se    1.05840000   19.00262000   15.86496000      0.571636   -0.53588400   -0.10062000
Se    7.17719000    1.46513000    5.89908000      0.862810   -0.31711400    0.54443100
Se    7.69256000    1.34295000   15.96535000     -0.700002   -0.57337900    0.28433800
Se    7.38454000    7.19117000    6.24327000     -0.425506   -0.47605000    0.20770800
Se    7.23952000    6.97287000   15.67028000     -0.447490   -0.18376800    0.26584000
Se    7.46789000   13.07578000    6.41365000      0.046761    0.41305600   -1.16729000
Se    7.39289000   13.42043000   15.86946000     -0.636943   -0.43405300    0.18482300
Se    7.18062000   18.76393000    6.17499000      0.257557   -0.02393900    0.00711500
Se    7.13893000   18.52516000   16.19326000      0.055814    0.51765600   -0.22696900
Se   12.96751000    1.61103000    5.68541000      0.581637    0.22067400    0.79195700
Se   13.18008000    1.20324000   15.73609000      0.643406    0.68006300   -0.34148500
Se   12.83460000    6.98411000    5.99206000      0.853079    0.79064800    0.05234000
Se   13.06074000    7.00539000   15.91194000     -0.038688   -0.25903900    0.03072200
Se   13.01268000   12.86607000    6.01746000     -0.349664   -0.37807800    0.20475400
Se   13.32843000   13.51720000   16.02533000     -0.676590   -1.58676900    0.40162100
Se   12.52217000   19.09421000    5.98129000     -0.162297    0.70862900   -0.83185800
Se   13.13640000   18.74502000   15.47752000     -0.566862   -0.63864300    0.98463200
Se   19.11589000    1.61569000    6.31203000      0.168704    0.44968300   -0.63989600
Se   18.91764000    1.82466000   15.81998000     -0.424177   -0.38054800    0.17705100
Se   19.07086000    7.28189000    5.88823000      0.754586    0.36876400    0.14394300
Se   18.99895000    7.38607000   15.98331000      0.116492   -0.06581000    0.04000300
Se   18.94532000   13.33171000    6.26528000     -0.482763   -1.19388200    0.75838300
Se   18.96413000   13.17793000   15.63471000     -0.148918    0.91088500   -0.42764900
Se   18.75723000   19.31637000    6.22984000      0.424927   -0.54558600    0.15053700
Se   18.75996000   18.91918000   15.68312000      1.180240    0.39434200   -0.02860100
Se    4.72608000    3.98446000    6.28273000     -0.642991    0.21829700   -0.09243700
Se    4.49423000    4.25353000   15.58197000     -0.105324   -0.86687100   -0.37434900
Se    4.23485000   10.18523000    5.97848000      0.311862    0.32781400    0.24040000
Se    4.40539000   10.23928000   15.87081000     -1.202301   -0.03264500   -0.21224500
Se    4.43494000   16.12099000    5.75149000     -0.425569    0.06347800    0.68057500
Se    4.21375000   16.11301000   16.15555000     -0.480912   -0.37505200   -0.06221700
Se    4.47297000   21.68084000    6.01955000     -0.245459    0.90334100    1.00835400
Se    4.02084000   21.56582000   16.16474000      1.327666    0.17623600   -0.07156000
Se   10.52547000    4.42514000    5.79077000     -0.774341   -0.19478200    0.61408100
Se   10.43001000    4.20047000   16.13475000      0.203434    0.39163100   -0.31860900
Se   10.42009000    9.90447000    6.25340000     -0.866983    0.23196100   -0.02844300
Se    9.76576000   10.39979000   15.58843000      0.541906   -0.49846600    0.06808000
Se   10.39491000   15.86945000    6.18656000     -0.554657   -0.33117300   -0.79268200
Se   10.25027000   15.87882000   16.28575000      0.986486   -0.23224100   -0.65541500
Se   10.21915000   21.68895000    6.02880000     -0.836745    0.48112000    0.39737100
Se   10.23571000   21.33098000   15.93920000     -0.060178    0.89654600    0.96232400
Se   16.09274000    4.64735000    6.39219000      0.087828   -0.20497100   -0.26664800
Se   16.25876000    4.56673000   15.65208000     -0.377463   -0.52596800   -0.00407900
Se   16.02750000    9.91316000    6.24891000     -0.929191    0.71796100    0.03295200
Se   15.93122000   10.05956000   15.83633000      0.236285   -0.20714200   -0.31980400
Se   15.51505000   16.26094000    5.90086000     -0.882705   -0.46146800   -0.27723100
Se   16.22804000   16.25480000   15.83771000     -0.568652   -0.71621500   -0.58761000
Se   15.38015000   22.03322000    5.95212000      2.055752   -1.08519900   -0.86186900
Se   15.80837000   21.33093000   16.24895000      0.974114    0.09319200   -0.51742600
Se   22.13445000    4.77329000    5.64827000      0.162069   -0.28522300    0.31676800
Se   21.95230000    4.33950000   15.91369000     -0.981543    0.16217600   -0.50566200
Se   22.00043000   10.39877000    6.41321000     -0.346880   -0.87898600   -0.99294500
Se   21.89675000   10.49161000   15.73401000     -0.534100   -0.62999200   -0.14227300
Se   21.60905000   16.33944000    5.93460000      0.294201    0.04059900    0.47258300
Se   21.73485000   16.15264000   16.36166000     -0.977719    0.66403400   -0.23671500
Se   21.94381000   21.59167000    6.47349000     -0.101666   -0.15997100   -0.73377300
Se   21.80748000   21.61386000   15.91438000      0.445095    0.78572400    0.37595700
Se    4.56022000    1.24179000    3.74573000     -0.010956    0.03520200   -0.66140600
Se    4.52415000    1.03540000   13.68559000     -0.191942    1.09823800   -0.20880800
Se    4.45688000    7.18825000    3.90266000     -0.043598    0.37634900   -0.40726200
Se    4.32447000    7.08918000   13.28879000     -0.592516    0.25414400    0.22689500
Se    4.31974000   13.02934000    3.77590000      0.336295    0.28734900   -0.29094100
Se    4.60797000   13.09666000   13.62010000     -0.387654    0.57674800   -0.13678400
Se    4.14480000   18.98143000    3.57602000      0.290056    0.36475500   -0.34044400
Se    4.41359000   18.89214000   14.00144000     -0.677385   -1.39813100    0.44392300
Se    9.98282000    1.33745000    3.09739000     -0.199808    0.92754400    1.20722000
Se   10.26965000    1.21194000   13.39775000     -0.539727   -0.13989900    0.24983300
Se    9.88849000    7.08517000    3.68270000      0.979293   -0.83652800   -0.57115200
Se    9.71983000    7.37091000   12.78515000     -0.165646    0.15002000    1.29586900
Se    9.87830000   12.71805000    3.34469000     -0.130614   -0.94554500    0.26777300
Se   10.29801000   13.03696000   13.16914000      0.114393    0.03943000    0.36835900
Se    9.39317000   18.92655000    3.29762000      0.913198    0.64665400    0.07664500
Se    9.70012000   18.95833000   13.85200000      0.761166   -0.06041800   -1.14427300
Se   16.25423000    1.63445000    3.86783000      0.402897    0.33713700   -0.42004400
Se   16.42037000    1.38157000   13.30372000      0.182188    0.36377200   -0.34678300
Se   15.80490000    7.31321000    3.64171000      0.974973    0.50769000   -0.10987200
Se   16.14701000    7.51430000   13.58008000      1.489925   -0.66542900   -1.31030200
Se   16.23251000   12.98717000    3.99108000     -0.824565   -0.15802800    0.39381400
Se   16.00967000   13.46011000   13.23280000      0.044392    0.21483800    0.08953600
Se   16.06105000   18.71803000    3.84300000     -0.391963    0.80461100    0.42018100
Se   16.25300000   18.72754000   13.19195000     -1.064124    0.81540200    1.05332600
Se   22.05391000    1.16238000    3.90350000      0.077075    0.33262700   -0.34543600
Se   21.54022000    1.39914000   13.45293000      0.058170    1.04109100   -0.26833900
Se   21.57163000    7.44977000    3.25586000      0.452987   -0.53714200    0.24888600
Se   21.51211000    7.25140000   13.32643000      1.110665    0.40419200   -0.71154600
Se   22.13578000   13.21936000    4.13979000      0.297764   -0.73676700   -0.89980700
Se   21.81351000   13.48325000   13.55391000      0.437856   -0.12338100   -0.20067100
Se   21.60139000   18.94458000    3.41118000     -0.203654   -0.14716400    0.69524900
Se   21.95791000   18.67090000   13.28869000      0.257351   -0.67029500   -0.24900600
Se    1.47858000    4.17069000    3.70831000      0.795957   -0.45655700    0.29863700
Se    1.45134000    4.32124000   13.29388000     -0.035361   -0.60774100   -0.26260900
Se    1.47544000   10.16624000    3.59522000     -0.316523    0.06651500    0.30132800
Se    1.20784000   10.08906000   13.37810000      0.715846    0.19254800    0.35652100
Se    1.19028000   16.18645000    3.78558000      0.898088   -0.66272700    0.00768800
Se    1.79435000   16.04134000   13.16537000     -0.204549    0.67733200   -0.36166200
Se    1.42993000   21.84010000    3.91417000     -1.359217    0.72386000   -1.10346500
Se    1.37864000   21.90945000   13.19458000      0.225032   -1.14212300    0.34484500
Se    7.16940000    4.38116000    3.77711000      0.490467   -0.78723800   -0.06632900
Se    7.44143000    4.24033000   13.73947000      0.095232   -0.55520800   -0.20003900
Se    7.25077000   10.06875000    3.91746000     -0.354549   -0.06559700   -0.85137200
Se    6.83983000   10.13751000   13.58213000     -0.116022   -0.40366500   -0.45769000
Se    7.61638000   15.91591000    3.59510000     -0.814441    0.11659400   -0.16389900
Se    7.47557000   15.81027000   13.42972000      0.080244    0.85437100    0.15258700
Se    6.87090000   21.99518000    4.09982000      0.343129   -0.62795500   -0.93952400
Se    6.88398000   21.95268000   13.79617000      0.349692   -1.16440300   -0.12801200
Se   13.01398000    4.19860000    3.69246000      1.060746    1.30560900    0.69906200
Se   13.30710000    3.70802000   13.42584000     -0.530656    0.96864000   -0.63279400
Se   13.14968000    9.94829000    3.39659000     -0.860782    0.35912400   -0.07899600
Se   13.07946000    9.90656000   13.60096000     -0.747207    1.79160500   -0.32778000
Se   12.61913000   15.50639000    3.18383000      0.522870   -0.43643200    0.56339500
Se   12.88453000   16.18284000   13.75328000     -0.991385   -0.05034400   -1.39456000
Se   12.95296000   21.62989000    3.27768000      0.658726    0.59793000    0.71296600
Se   13.23189000   21.64004000   13.29964000     -1.110594    0.62017800   -0.60110400
Se   19.54239000    4.29827000    3.40441000      0.016700    0.07174700    0.41685800
Se   18.74357000    4.81883000   13.04837000      0.379034   -0.70969900    0.36470300
Se   18.98353000   10.44494000    3.77555000      0.322418   -0.37401600    0.24618900
Se   18.95927000   10.48452000   13.60979000     -0.140847    0.19008000   -0.31229500
Se   19.12812000   16.04701000    3.71182000     -0.973077   -1.00366400   -0.36142100
Se   19.23121000   16.48741000   12.84381000     -0.543082   -0.55247400    0.51493700
Se   18.77034000   22.12626000    4.15430000      0.318444   -0.72018800   -0.27344300
Se   19.03742000   21.77450000   13.22104000      1.197305    0.30693100    0.87662600
