384
23.23808000 23.23808000 19.51320000
Ge    5.80914000    5.76037000    9.81412000      0.855817   -0.10555700    0.34239500
Ge    6.13794000    5.62078000    0.01004000      0.068156    1.11447400   -0.15744800
Ge    5.91455000   11.72268000    9.78259000     -0.446458   -0.76148000   -0.53993200
Ge    5.40396000   11.47898000   19.47168000      0.419067   -0.37464500    0.33763400
Ge    6.03970000   17.60872000    9.81912000     -0.666735   -1.55858200   -0.49937300
Ge    5.52005000   17.33129000   19.45828000     -0.974354   -0.22076200    0.39743300
Ge    5.68687000   22.76876000   10.07521000      1.128862    1.10844100   -0.63667600
Ge    5.72897000   23.10326000   19.42572000     -0.049743    0.94019700   -0.04186200
Ge   11.37616000    5.64672000   10.07590000      0.638982    0.16456200   -1.25392000
Ge   11.54957000    5.67355000   19.25798000      1.048837    0.65155800    0.68488700
Ge   11.60762000   11.88976000    9.94849000      0.224517    0.32849800   -0.11094700
Ge   11.50067000   11.18030000   19.21126000      0.580502   -0.39173000    0.85892600
Ge   11.44411000   17.52967000    9.64351000     -0.284209   -0.26874300    1.06423400
Ge   11.91340000   17.10928000    0.01901000     -0.736161    0.74710000    1.11001700
Ge   11.36313000   23.10955000    9.81835000     -0.945576   -0.79084100   -0.88793000
Ge   11.76966000   23.13992000    0.02275000      0.049033   -0.22087000    0.03396800
Ge   17.76423000    6.12905000    9.62501000     -1.069264    0.77304700    0.12343500
Ge   17.59953000    6.02317000    0.21744000     -0.336086    0.26087800   -1.45764700
Ge   17.37078000   12.23839000    9.76273000     -0.062897   -1.78558900   -0.52053300
Ge   17.54598000   11.99067000   19.50420000      0.115479   -1.10037500   -0.01559400
Ge   17.19566000   17.67923000    9.45061000      0.236812    1.73236800   -0.30046100
Ge   17.12456000   17.46601000    0.39304000      0.166390   -0.53595100    0.89800600
Ge   17.37798000    0.22035000    9.58793000     -0.538414    0.12351400    0.46160500
Ge   17.58707000    0.12282000    0.04383000     -1.483627   -0.71991400   -0.44904700
Ge    0.07046000    5.71011000    9.48583000     -0.588884    0.96606000    1.00535500
Ge    0.49402000    5.91149000    0.02429000     -1.410647    0.44169500    0.25424200
Ge    0.12697000   11.49451000    9.59234000     -0.313469    0.23642700   -0.75786900
Ge   23.21267000   11.86188000    0.07984000     -0.324965   -0.38965300   -0.61868000
Ge    0.06764000   16.95263000    9.49843000      0.615839    1.92029000   -0.05706000
Ge   22.90816000   17.93297000    0.36879000      0.579674   -0.78772900   -0.64982800
Ge   23.22191000   23.18141000    9.82210000     -1.343571   -0.22314200   -0.47795900
Ge   23.16239000   23.11951000   19.43598000     -0.253964    0.23611300    0.00083400
Ge    3.12669000    5.52553000    7.25138000     -0.323704    0.39956400    0.21828900
Ge    3.18054000    5.61546000   16.88309000      0.281169    2.02695600   -0.15606700
Ge    3.09537000   11.93565000    7.17239000     -0.486016   -0.49163600   -0.34246400
Ge    2.57081000   11.69106000   16.83293000      0.678159   -1.07506100    0.55423500
Ge    2.90409000   17.25622000    7.41266000      0.488796    0.20943700   -1.24077000
Ge    2.46946000   17.49917000   17.10798000      0.043093   -0.20383600    0.07294200
Ge    3.07388000   23.11680000    7.48199000     -0.839187   -0.10684100    0.22316200
Ge    2.89960000    0.33080000   16.75515000     -1.053050   -1.01286600    0.43184000
Ge    8.91833000    5.67373000    7.26707000      0.340968   -0.02801000   -0.39771100
Ge    8.67934000    5.57788000   17.09001000     -0.157577   -0.07693400   -0.19413900
Ge    8.81890000   11.37727000    7.35403000      0.859216   -0.09617200    0.78923500
Ge    8.51484000   11.69422000   17.09142000     -0.830676    0.00487800    0.92540400
Ge    8.69582000   17.13934000    7.26787000     -0.184701    0.50243400   -0.21511000
Ge    8.79459000   17.37253000   17.36295000     -0.095849   -0.30157100    0.82681500
Ge    8.54298000   23.14668000    7.30567000     -0.093719   -0.27425000   -0.78219400
Ge    9.03713000   23.10922000   17.25264000     -0.746692   -1.37635500   -0.16678400
Ge   14.59610000    6.18252000    7.42516000     -0.155016   -0.52418500    0.27798100
Ge   14.77176000    5.80367000   17.09663000     -0.410365   -0.47833000    1.04191000
Ge   14.50924000   11.61211000    7.34970000      0.508200   -0.72939000    0.43366400
Ge   14.66450000   11.65108000   17.04951000     -0.742269    1.02706900    0.60015300
Ge   13.96751000   17.78182000    7.11681000      2.017791   -0.91781400    0.61278000
Ge   14.51655000   17.38490000   16.98304000      0.835390    0.19202400    0.50509500
Ge   14.09668000    0.17458000    7.24097000     -0.874632    0.77437700    0.54889100
Ge   14.47399000   23.09069000   17.14058000      0.615452    0.14804600    0.31096500
Ge   20.77012000    6.07753000    7.20488000     -0.828272    0.33918200   -0.00628200
Ge   20.61246000    5.93381000   17.08305000     -0.481709   -0.48423800   -0.00060800
Ge   20.24536000   11.59332000    7.45260000      0.187678    0.44497200   -0.33528900
Ge   20.33802000   11.82094000   17.05231000      0.947906    0.29895500   -0.44926700
Ge   20.08306000   17.59548000    7.27791000      0.840165    1.01755800   -0.87007100
Ge   20.04213000   17.89185000   17.53285000     -0.646181   -1.17221400   -1.58051400
Ge   20.24438000   23.02267000    7.32918000      1.054512    0.83594000    0.41719200
Ge   20.23584000    0.06185000   16.87290000      0.577724    0.06225800    0.18257900
Ge    3.10810000    2.61781000    4.94155000     -1.067847    0.86864600    0.72259400
Ge    2.89607000    2.74773000   14.42287000      0.678385    0.65401100   -0.39162000
Ge    2.78817000    8.65960000    4.89954000      0.092086   -0.51680700   -0.28553000
Ge    2.96711000    8.76592000   14.50026000      0.396137    0.07697400   -0.13688600
Ge    2.84678000   14.63015000    4.68533000      0.754797    1.41650200    0.04590100
Ge    2.97458000   14.65287000   14.59805000      0.470397   -1.60256500    0.69562000
Ge    2.80231000   20.44452000    5.01820000      0.056723   -2.13751000    0.05721200
Ge    2.63599000   20.37721000   14.72122000     -0.460000    0.33238000   -1.00418600
Ge    8.88021000    2.86242000    4.78743000     -0.464861   -0.22684100   -0.83296600
Ge    9.11947000    2.79994000   14.82500000     -0.421506   -0.36270500   -1.44669300
Ge    8.74720000    8.57155000    4.98603000     -0.076965    1.33051200    0.52194600
Ge    8.39203000    8.70390000   14.64543000      0.508554    0.11891900   -1.05221600
Ge    8.90735000   14.28948000    4.76161000      0.043243    0.94436400    1.18965300
Ge    9.13280000   14.54499000   14.66060000     -1.122362   -0.47837100   -0.23644100
Ge    8.56352000   20.44275000    4.93828000     -0.837896   -0.42597200    0.21392200
Ge    8.28996000   20.47754000   14.99965000     -0.662973   -0.70013600    0.46384500
Ge   14.81428000    3.07326000    5.07440000     -0.911601    0.04800200   -0.27018600
Ge   15.01595000    2.53961000   14.70928000     -1.539988    0.78022900    0.45395100
Ge   14.37447000    8.71425000    4.95980000     -0.053893   -0.35123800   -0.01636200
Ge   14.45583000    8.45921000   14.71461000      0.089727    0.56398200    1.03500900
Ge   14.23051000   14.28363000    4.57357000      1.159779    1.40271000    0.14753600
Ge   14.52436000   14.82053000   14.56494000      1.804897    0.33245400    0.38330900
Ge   14.38059000   20.21785000    4.77387000     -0.812361   -0.03517800   -0.24248200
Ge   14.65908000   20.30444000   14.51601000      0.675545   -1.26686700   -0.02527000
Ge   20.79831000    2.91053000    5.04786000     -0.783353   -1.07343700   -0.51071500
Ge   20.17896000    3.25850000   14.33010000      1.147779    0.07708500    0.86007400
Ge   20.56490000    8.84501000    4.87188000     -0.574786    1.15045900    0.55950300
Ge   20.34161000    8.75879000   14.64328000      0.603866    0.99734600   -0.08965500
Ge   20.40914000   14.49999000    5.00448000      0.689772    1.31926600   -0.74074500
Ge   20.33982000   15.16572000   14.66699000     -0.223956   -0.66094000   -0.36250700
Ge   20.39359000   20.45632000    4.94342000      0.358740    0.30083800    0.01770400
Ge   20.67277000   20.18188000   14.43844000     -3.369111    0.37740100    0.46900500
Ge    5.90555000    2.85425000    2.36025000      0.474682    0.13120800    0.18343000
Ge    6.03194000    2.67512000   12.52689000      0.119542   -0.18403500   -0.28987200
Ge    5.82684000    8.55069000    2.37790000      0.632257   -0.13636800    0.92062900
Ge    5.75341000    8.48119000   12.11067000     -0.235293    1.16196300    0.07109500
Ge    5.86810000   14.55457000    2.55119000     -0.665187   -0.26331100   -0.15291200
Ge    6.07914000   14.45315000   12.11146000     -0.135812   -0.37686800    1.10372400
Ge    5.80385000   20.51824000    2.37904000     -0.955977   -0.31134400    1.20198800
Ge    5.80611000   20.00364000   12.55240000      1.176051    0.73490600    0.64902300
Ge   11.59692000    3.00212000    2.35065000      0.334608   -1.52114900   -0.09470300
Ge   11.61537000    2.48655000   11.96438000      1.090790    0.41085600    1.48237100
Ge   11.43540000    8.41860000    2.46905000      0.546757    0.34427800   -0.76672100
Ge   11.70766000    8.55964000   12.31681000     -0.874401   -0.29348000   -1.48762500
Ge   11.34849000   13.85277000    1.91688000      0.946513    1.21203000    0.43743300
Ge   11.83988000   14.52948000   12.02565000      0.213447    0.59628000    0.68315800
Ge   11.25011000   20.24795000    2.38856000      1.244188   -1.06701300   -0.03914600
Ge   11.33871000   20.18270000   12.32562000     -0.024439    0.48141100    1.57341600
Ge   17.69520000    3.16253000    2.51905000     -0.261554   -1.51916800   -0.27241800
Ge   17.35652000    3.26671000   11.85966000     -0.025094   -0.82699700    0.19103400
Ge   17.59966000    8.90852000    2.68069000     -1.629663    0.16162100   -0.22829000
Ge   17.55145000    9.18541000   12.19767000     -0.792391   -0.13432800    0.13976900
Ge   17.49260000   14.44834000    2.63165000      2.026760    0.15963000   -0.03716900
Ge   17.48742000   14.96979000   12.03681000      0.619163   -0.00162300    0.35569400
Ge   17.52195000   20.37833000    2.99728000     -0.760527    0.52796300   -0.99975700
Ge   17.42341000   20.45993000   12.21537000      0.177370    0.14661800   -1.64958000
Ge    0.09717000    2.74316000    2.49058000     -0.064884   -0.95866300   -0.39949400
Ge   23.12522000    2.76410000   12.20531000      1.719334   -0.57861300    0.16633600
Ge   23.15359000    8.86222000    2.33729000      0.817962    0.33487000   -0.48544700
Ge   23.21688000    8.73112000   11.81984000     -0.966622   -1.03518200    0.96096800
Ge    0.20202000   14.52144000    2.45463000     -0.646966   -0.30317200    0.68889400
Ge    0.34336000   14.44159000   12.11387000     -0.745634   -0.43932200    0.01859000
Ge    0.18889000   20.19737000    2.46227000      1.051996    0.65782200    0.87444200
Ge   23.19477000   20.25886000   12.06050000      1.130093   -0.70682600   -0.72835900
Se    1.47156000    1.33949000    1.02947000     -0.135532    0.33746300    0.35222700
Se    1.45171000    1.31967000   10.85903000      0.429980    1.03328700    1.38071800
Se    1.45832000    7.99911000    0.60260000      0.115302   -0.47626500    0.87168700
Se    1.47840000    7.04157000   10.88436000     -0.104857    0.56557000    0.29897400
Se    1.66629000   13.27155000    1.11291000     -0.035725   -0.38384900   -0.17222200
Se    1.58345000   13.05503000   10.49426000      0.732438    0.34575400    1.08127600
Se    1.78648000   18.73232000    1.31333000     -1.044796    0.83823900    0.28855100
Se    1.51793000   18.56938000   10.89809000     -0.989011    0.32318000   -0.04261500
Se    7.39371000    1.64106000    0.75729000     -1.343172   -0.59580200    0.78089500
Se    7.29854000    0.76355000   11.55401000     -0.435397    0.51858500   -0.57563900
Se    7.56545000    7.06960000    1.33203000     -0.903145    0.51665800   -0.09647100
Se    7.41166000    7.20627000   11.02065000     -0.338227   -0.46627300   -0.54335500
Se    6.94759000   12.88817000    1.26526000      0.283439   -0.58539400   -0.43735500
Se    7.49218000   12.80631000   11.19088000      0.162636   -0.11528000   -0.24390600
Se    6.95757000   18.89145000    1.10087000      0.417027   -0.34299700   -0.04972000
Se    7.49460000   18.63035000   11.37166000     -0.170204    0.62872200    0.38992400
Se   13.08479000    1.53391000    1.20088000      0.536401   -0.38663900   -0.16056500
Se   13.06356000    1.03788000   10.78977000      0.439014    0.63329100    0.45115700
Se   13.05188000    7.05519000    1.17476000     -1.033955    0.27248100   -0.21571400
Se   13.08106000    6.86773000   11.16770000     -0.539921    0.77296700    0.56152400
Se   13.02267000   12.41348000    1.13939000     -0.003615    0.23469700   -0.32353900
Se   13.57665000   13.23856000   10.88849000     -1.853147   -0.11620300    0.17129000
Se   12.99212000   18.67454000    1.48612000     -0.505696    0.41474200    0.08228100
Se   12.78282000   18.72399000   11.35530000      0.540213   -0.66800500   -1.16999000
Se   19.02335000    1.55504000    1.01335000      0.776461    1.29048500    0.97995200
Se   18.89480000    1.82069000   10.58084000     -0.414175    0.15255000    0.16073000
Se   18.95194000    7.69229000    1.13896000      0.543219   -0.16819800    0.24854800
Se   18.98047000    7.89972000   10.75686000      0.086590   -0.68175700    0.27289100
Se   19.13486000   13.48592000    0.97324000     -0.710675   -0.17588100    0.81548200
Se   19.00564000   13.44137000   10.93872000     -0.196305    0.14532300    0.04612200
Se   18.72724000   18.58446000    1.87126000     -0.185224    0.35916400   -0.21100800
Se   18.72217000   19.14923000   10.57131000     -0.011349    0.16610200    0.35525500
Se    4.57053000    4.54247000    1.30512000     -1.114968   -0.71728000    0.57232200
Se    4.57860000    4.24097000   11.25939000      0.071187   -0.39554600   -0.08544100
Se    4.11867000    9.71609000    1.15046000      0.683460    0.56235600   -0.17606400
Se    4.34485000   10.13239000   10.87616000      0.319834    0.02977000   -0.13900800
Se    4.09885000   15.70582000    1.40779000      0.967834    0.94270000   -0.58577700
Se    4.64443000   15.73518000   10.81668000     -0.012781    0.81323100   -0.17202100
Se    4.17181000   21.96644000    1.41992000      0.362789    0.29733000   -0.64944600
Se    4.33789000   21.22817000   11.24919000     -1.010489    0.25694500   -0.71347100
Se   10.19217000    4.37302000    1.19013000     -1.112796    0.59421400   -0.47853000
Se   10.04543000    3.74948000   10.70526000     -0.025469    0.48619100    0.19876900
Se   10.03276000   10.09298000    1.25999000      0.129184   -0.66610600   -0.01790400
Se   10.18690000   10.29550000   11.10074000      1.148462   -0.29699400    0.27422300
Se   10.18671000   15.64772000    0.86097000      0.008457    0.00093200    0.05172300
Se   10.13407000   15.93388000   10.94767000      0.462539   -0.20000200   -0.17255300
Se   10.10243000   21.71724000    1.02842000     -0.440913    0.60573600   -0.30971900
Se    9.89804000   21.58615000   11.15396000      0.013187    0.67791400   -0.63788400
Se   16.20113000    4.38776000    1.13012000     -0.447397   -0.14272800    0.59053200
Se   15.93620000    4.73481000   10.51833000      0.777150   -0.22079200    0.57100300
Se   16.10315000   10.43452000    1.38801000      0.791539   -0.03793700   -0.26797200
Se   15.95396000   10.49368000   10.86597000      0.321480    0.31016800    0.30404900
Se   15.91496000   15.80210000    1.73382000     -1.296332    1.03026400   -1.01759500
Se   15.98354000   16.35934000   10.84313000     -1.436416   -1.00941600    0.46856600
Se   16.19606000   22.01042000    1.50628000      0.144584   -0.52638300    0.07805800
Se   15.97714000   22.08043000   11.05244000      0.100616   -0.09578000   -0.01993700
Se   22.14447000    4.55090000    1.36802000      0.052700    0.07936100   -0.29269600
Se   21.93974000    4.02378000   10.71863000     -1.161968    1.15093700   -0.76408400
Se   21.73490000   10.46638000    1.37641000     -0.110049    0.52945500   -0.18403200
Se   21.68425000   10.32844000   10.69861000      0.523449   -0.84048000    0.78793900
Se   21.92395000   16.04948000    1.55417000     -1.348540    0.47464200   -0.56478700
Se   21.98519000   15.74356000   10.89147000     -0.688568   -0.44536600    0.65634700
Se   21.85440000   21.62252000    1.43244000      0.229877    0.84648100   -0.63720200
Se   21.66676000   21.61355000   10.89034000      0.129203    0.45975600   -0.18562900
Se    1.28272000    4.21842000    8.24371000      0.879773   -0.62020700   -0.40318800
Se    1.87724000    4.45995000   18.41222000     -0.051389   -1.49889200   -0.07928500
Se    1.59737000   10.26549000    8.08241000     -0.131793    0.22620500    0.67284500
Se    1.09035000   10.18141000   18.14659000      0.343306    1.09146600   -0.06308300
Se    1.39378000   15.54057000    8.13640000      0.311842    0.36701200    0.20042600
Se    0.59511000   16.33276000   18.17854000      0.657963    0.23061600    0.35241400
Se    1.42033000   21.69869000    8.74619000      0.891789   -0.28512700   -0.74644700
Se    1.42103000   21.99144000   17.97438000      0.088213   -0.02088900    0.34439100
Se    7.17634000    4.42404000    8.28025000     -0.218214   -0.85307600    0.59661900
Se    7.46045000    4.00234000   18.47237000      0.331978    0.00045700   -0.67550800
Se    7.10567000   10.07129000    8.41933000      0.040801    0.24978000    0.28731000
Se    7.15922000   10.05969000   18.45317000     -0.034777    1.01426300   -0.40282800
Se    7.11819000   15.80599000    8.50080000      0.135199    0.82390900    0.17918300
Se    7.35825000   15.91200000   18.78110000     -0.302189    0.33226900   -0.26570400
Se    7.31751000   21.56168000    8.57789000     -0.570784   -0.00501000    0.43290900
Se    7.22095000   21.51816000   18.53558000      0.677630    0.76782800   -0.75127500
Se   13.45276000    4.59469000    8.95321000     -0.851616    0.09898500   -0.44319400
Se   12.87199000    4.15444000   18.02668000      1.273766    0.61325900   -0.13950900
Se   13.01013000   10.30485000    8.84185000      0.533812    0.01302200   -0.81058900
Se   13.05590000    9.98927000   17.92000000      0.333934   -0.02610400   -0.27298600
Se   12.97269000   16.11447000    8.51916000      0.160699    0.31279100   -0.12789200
Se   13.09320000   15.78537000   18.11587000      0.714831   -0.57364700   -0.64025500
Se   12.84962000   21.79484000    8.48088000     -0.163209   -0.37448600   -0.09082900
Se   12.95228000   21.58415000   18.09840000     -0.454358    0.18199200    0.89827800
Se   19.32611000    4.66608000    8.63742000      0.368845   -0.12670100   -0.51243600
Se   18.76619000    4.63711000   18.10421000      0.274178    0.27035000    0.45171200
Se   18.65446000   10.31744000    8.56080000     -0.522911    0.65010000    0.28351200
Se   18.81012000   10.36776000   17.96712000     -0.906279    0.11315200    0.94687100
Se   18.69913000   16.22838000    8.44236000     -0.432611   -1.61612000    0.11262100
Se   18.38575000   16.26230000   18.38561000      1.080695   -0.34910700   -0.43835500
Se   18.65817000   21.78787000    8.53115000     -0.161047   -0.27894100   -0.03266200
Se   18.47306000   21.90763000   17.83736000      0.733500    0.17345200    0.30433800
Se    4.55045000    1.30301000    8.76198000      0.087438   -0.76173400    0.39376800
Se    4.54864000    1.50496000   17.85595000      0.658083    0.22416400    0.77631000
Se    4.16225000    7.13555000    8.85763000     -0.340459   -0.24188000   -0.78257000
Se    4.90357000    7.05317000   18.02572000     -0.613632   -0.29689300   -0.09055700
Se    4.70250000   13.29832000    8.21862000      0.166019   -0.24063400    0.80856700
Se    3.98774000   13.03165000   18.33322000      0.099451   -0.08370600   -0.26632400
Se    4.19700000   18.81259000    8.81285000      0.013036   -0.25412300   -0.10676300
Se    3.80941000   18.91763000   18.46544000      0.940751   -0.46073700    0.20762200
Se    9.97962000    1.36430000    8.40213000      0.548802    0.25602100    0.70189200
Se   10.30354000    1.40919000   18.39636000      0.377667    0.33667200    0.29340700
Se   10.07857000    7.19924000    8.64744000      0.644597   -0.42353500    0.67112700
Se   10.02745000    7.16999000   18.17404000      0.250041    0.35564000    0.19858000
Se    9.98172000   13.15735000    8.64172000      0.345256   -0.75304200   -0.06544800
Se   10.24112000   12.90131000   18.32503000     -0.638821    0.29056100   -0.61858000
Se    9.80195000   18.89460000    8.56317000      0.214725   -0.35689100   -0.03376000
Se   10.28253000   18.65642000   18.78573000     -0.449513    0.38441400   -0.77606300
Se   15.73674000    1.58095000    8.36788000      0.151350   -0.19981600    0.02226400
Se   15.86349000    1.46231000   18.33605000     -0.003252   -0.61161900    0.11318100
Se   16.21192000    7.70002000    8.40421000      0.122452   -0.84191100    0.12844000
Se   15.75455000    7.41288000   18.75921000      0.103882   -0.94199900   -0.64044300
Se   15.93511000   13.37336000    8.19171000      0.088063    0.08281400    0.24635900
Se   15.86495000   13.32508000   18.48358000     -0.235924   -0.74885700   -0.49599800
Se   15.78773000   19.28846000    8.30564000     -0.629360   -1.02731900   -0.33639900
Se   15.69444000   18.79023000   18.68859000     -0.993316    0.87978500   -0.51289400
Se   21.65761000    1.38368000    8.62750000     -0.025489   -0.90944300   -0.17190700
Se   21.75012000    1.46588000   18.27345000     -0.328994   -0.67989200   -0.24114100
Se   22.06707000    7.63946000    8.60022000     -0.346416   -1.28826300   -0.52075900
Se   22.00717000    7.30748000   18.37313000      0.339311   -0.26243900    0.26428200
Se   21.61774000   12.99684000    8.80172000      0.241829    0.25549900   -0.24059200
Se   21.57210000   13.33728000   18.49462000      0.465395   -0.38592300   -0.04534800
Se   21.85924000   18.66632000    8.51828000      0.160997    0.08223000    0.24877500
Se   20.99520000   19.29088000   19.15530000      0.902823    0.26462900   -0.21936200
Se    1.45344000    1.43025000    6.46822000      1.323337   -0.15831200   -0.63480500
Se    1.23894000    1.57113000   15.51772000      0.011416   -0.55983200    0.69317800
Se    1.50482000    6.95343000    5.98489000      0.444587   -0.11433400    0.20629500
Se    1.63572000    7.20342000   15.67069000     -0.003772   -0.60789300    0.69560300
Se    1.48100000   13.36660000    6.03823000     -0.237834   -1.29356800    0.56001000
Se    1.11593000   12.91036000   15.47715000      0.768378    0.98890300   -0.37032300
Se    1.35739000   18.89909000    6.35980000      0.850235    0.11952400   -0.16942100
Se    1.11409000   19.00454000   15.82495000     -0.438466   -0.64174800    0.05787900
Se    7.18201000    1.45815000    5.89268000      0.922690   -0.34723900    0.54701000
Se    7.70044000    1.35500000   15.96877000     -1.168928   -0.49787500    0.18475600
Se    7.37759000    7.18520000    6.26237000     -0.498335   -0.28952900    0.00999700
Se    7.25620000    6.96633000   15.68634000     -0.354103   -0.23677100    0.29950400
Se    7.49763000   13.03107000    6.37430000     -0.375840    0.75302400   -1.31816700
Se    7.34947000   13.42031000   15.94392000      0.107317   -0.25582000   -0.14104700
Se    7.16473000   18.74739000    6.18154000      0.579340    0.24596800   -0.24314200
Se    7.12723000   18.48512000   16.20749000     -0.160150    0.95685500   -0.53537700
Se   12.96882000    1.64840000    5.66821000      0.226773   -0.03694900    0.83753800
Se   13.19798000    1.18425000   15.73239000      0.656293    0.69040500   -0.35485300
Se   12.84692000    6.96643000    5.99212000      0.902391    0.78013500    0.02739300
Se   13.08437000    6.99042000   15.93934000     -0.103525    0.02378100   -0.21688000
Se   13.04784000   12.88004000    6.02212000     -1.006699   -0.23600400    0.03249800
Se   13.29069000   13.49052000   15.99844000     -0.282881   -1.35134200    0.33564200
Se   12.49636000   19.07520000    5.94881000     -0.027651    0.55246100   -0.65050400
Se   13.18286000   18.72734000   15.51999000     -0.581812   -0.18216700    0.52531400
Se   19.11148000    1.65655000    6.32550000      0.125339    0.33890400   -0.51170300
Se   18.95801000    1.84603000   15.80963000     -0.604440   -0.40343500    0.17846500
Se   19.05170000    7.28441000    5.92398000      0.518067    0.15666500    0.18616000
Se   18.99298000    7.37033000   16.00153000      0.016878   -0.15265900    0.13395600
Se   18.98547000   13.33847000    6.31225000     -0.902302   -1.03918900    0.66902800
Se   19.03972000   13.18303000   15.60729000     -0.375742    0.86127900   -0.41590200
Se   18.73599000   19.40569000    6.24950000      0.315697   -0.95982300    0.30969800
Se   18.69249000   18.93247000   15.68684000      1.657311    0.14406800    0.33498900
Se    4.72659000    3.97790000    6.24744000     -0.944751    0.29719500    0.00445900
Se    4.50655000    4.24151000   15.55628000     -0.097360   -0.62210500   -0.10209200
Se    4.21308000   10.16286000    5.98147000      0.787660    0.29578000    0.18963900
Se    4.39353000   10.20356000   15.88883000     -1.182791    0.22614900   -0.17973600
Se    4.46381000   16.11717000    5.72713000     -0.782618    0.20940000    0.83948900
Se    4.23722000   16.09364000   16.17815000     -0.929203   -0.30241400   -0.24446900
Se    4.45793000   21.68917000    6.02304000      0.262482    0.97616400    1.07862200
Se    4.03003000   21.52962000   16.13787000      0.767959    0.98557100    0.13955800
Se   10.51155000    4.37308000    5.77261000     -0.811392   -0.06186100    0.71090300
Se   10.38322000    4.16491000   16.16492000      0.770283    0.62229500   -0.10384700
Se   10.39501000    9.86158000    6.30650000     -0.614449    0.12299300   -0.26506900
Se    9.76902000   10.39406000   15.63692000      1.110902   -0.77290200   -0.36262500
Se   10.39570000   15.87053000    6.18702000     -0.538604   -0.39930700   -0.85128800
Se   10.25492000   15.89035000   16.24870000      0.834837    0.04833600   -0.23771000
Se   10.19923000   21.72985000    6.05866000     -0.589640    0.29619800    0.24630900
Se   10.19428000   21.36093000   15.94305000      0.265524    0.97525000    0.99820000
Se   16.11906000    4.57481000    6.38897000     -0.233283    0.06482100   -0.17691900
Se   16.24522000    4.55422000   15.64458000     -0.383486   -0.50544900    0.01079400
Se   16.04446000    9.95485000    6.27451000     -1.209909    0.45999600   -0.16180600
Se   15.90802000   10.11585000   15.84277000      0.464046   -0.35665900   -0.38643400
Se   15.53242000   16.22601000    5.93376000     -0.931602   -0.27824800   -0.36211500
Se   16.23637000   16.23044000   15.82460000     -0.813133   -0.64246500   -0.45872000
Se   15.40902000   22.07064000    5.97177000      1.760783   -1.28697600   -0.86639300
Se   15.84214000   21.34631000   16.26921000      0.945774    0.09486500   -0.53206900
Se   22.13146000    4.75104000    5.62441000      0.288310    0.33314000    0.69984500
Se   21.98825000    4.33403000   15.93006000     -1.014415    0.03432300   -0.80577800
Se   21.98660000   10.36172000    6.38801000     -0.610757   -0.81322400   -0.86778000
Se   21.89067000   10.48763000   15.74920000     -0.500814   -0.69431400   -0.07061000
Se   21.58925000   16.38160000    5.91090000      0.304238   -0.08957400    0.43056100
Se   21.72620000   16.15434000   16.36987000     -0.587326    0.80458600   -0.02533200
Se   21.91762000   21.55211000    6.48563000     -0.138220    0.22503800   -0.50444800
Se   21.81525000   21.57209000   15.86292000      0.320311    1.08357900    0.63769200
Se    4.57304000    1.26103000    3.71767000      0.012547   -0.16458300   -0.69364200
Se    4.53788000    1.08773000   13.67297000     -0.250313    1.04540400   -0.23348200
Se    4.42180000    7.19524000    3.89284000      0.093490    0.10127400   -0.49024900
Se    4.28298000    7.06160000   13.27965000     -0.440273    0.52935700    0.16895100
Se    4.34837000   13.05924000    3.73256000      0.195419    0.09868800   -0.14583800
Se    4.63752000   13.12838000   13.61575000     -0.370503    0.34432600   -0.11779600
Se    4.13637000   18.95078000    3.54212000      0.222265    0.73650500   -0.12713200
Se    4.38087000   18.86832000   14.06180000      0.022614   -0.97394100   -0.34158800
Se   10.00498000    1.39281000    3.07887000     -0.463839    0.52617300    1.23277200
Se   10.25478000    1.15317000   13.39956000     -0.367567    0.22645400    0.22598700
Se    9.88341000    7.05715000    3.69238000      0.925528   -0.55294600   -0.53947900
Se    9.73340000    7.37087000   12.79003000     -0.181315    0.14729900    1.33636100
Se    9.88718000   12.74687000    3.32226000     -0.366524   -1.43419500    0.44096900
Se   10.27521000   12.99171000   13.17334000      0.206373    0.21896600    0.31461300
Se    9.43560000   18.96947000    3.30266000      0.482907   -0.10942800    0.13798900
Se    9.70213000   18.97415000   13.86289000      0.854370   -0.43661900   -1.23084800
Se   16.26200000    1.65776000    3.91282000      0.538564    0.07655100   -0.69244600
Se   16.42503000    1.38656000   13.34546000      0.635685    0.00089100   -0.93112700
Se   15.78306000    7.30951000    3.64516000      1.267402    0.33742700   -0.26763500
Se   16.18847000    7.50813000   13.59775000      1.394382   -0.68254600   -1.24914000
Se   16.24433000   12.95656000    3.95442000     -0.787968    0.04940600    0.27334000
Se   15.99903000   13.45474000   13.19406000      0.068371    0.22492100    0.08439200
Se   16.06306000   18.63599000    3.83621000     -0.471334    1.16093900    0.49008100
Se   16.26948000   18.76114000   13.22023000     -1.181132    0.34595900    1.09372300
Se   22.06603000    1.14748000    3.88555000     -0.155088    0.97136900   -0.14371600
Se   21.55061000    1.42305000   13.42859000     -0.039662    0.64801300   -0.21015500
Se   21.54278000    7.42980000    3.24148000      0.410528   -0.67832100    0.32836000
Se   21.50343000    7.20236000   13.30647000      0.893315    0.74873500   -0.51870800
Se   22.14990000   13.19737000    4.14208000      0.191422   -0.63834500   -0.91896000
Se   21.81665000   13.47151000   13.54211000      0.296005   -0.00624200   -0.07280800
Se   21.64145000   18.94506000    3.40859000     -0.441545   -0.15366600    0.83157300
Se   21.96822000   18.67812000   13.33339000      0.286652   -0.82423500   -0.33432000
Se    1.45934000    4.15358000    3.73852000      1.143248   -0.09286900    0.48409200
Se    1.48221000    4.32722000   13.27908000     -0.134224   -0.52523600   -0.26734000
Se    1.50379000   10.14308000    3.59300000     -0.517918    0.16230000    0.14581700
Se    1.19481000   10.08736000   13.38867000      0.407727   -0.01546300   -0.08656100
Se    1.16184000   16.15702000    3.77982000      1.195025   -0.05316800    0.38690000
Se    1.80029000   16.00950000   13.16608000     -0.332587    0.97897000   -0.61536200
Se    1.41190000   21.87665000    3.93153000     -1.126358    0.10097800   -1.01822200
Se    1.37272000   21.85879000   13.19487000      0.329945   -0.65375600    0.37036700
Se    7.15067000    4.38774000    3.80408000      0.522896   -0.83696500   -0.16292400
Se    7.45999000    4.25946000   13.72736000      0.013237   -0.78173400   -0.26436800
Se    7.23324000   10.06856000    3.92647000     -0.343203   -0.08724100   -0.80382500
Se    6.80634000   10.12814000   13.55588000      0.207307   -0.63525500   -0.14714300
Se    7.59229000   15.91011000    3.55370000     -0.432189   -0.04862000    0.12343900
Se    7.48539000   15.84093000   13.43468000      0.159332    0.60900500    0.25319900
Se    6.87843000   22.00006000    4.07038000      0.469245   -0.60771800   -0.79494800
Se    6.91378000   21.95749000   13.82841000     -0.006117   -0.87261400   -0.40850500
Se   13.00347000    4.23131000    3.68241000      0.980880    1.09129400    0.60191100
Se   13.28468000    3.70593000   13.47155000     -0.637524    0.80217800   -0.75206900
Se   13.11990000    9.95676000    3.36298000     -0.502454    0.25168500    0.31116300
Se   13.07540000    9.87118000   13.56640000     -0.239100    2.00034300    0.09294600
Se   12.61729000   15.53132000    3.20576000      0.387478   -0.69687400    0.41608400
Se   12.87566000   16.18303000   13.71437000     -0.806669   -0.29803400   -1.21134300
Se   12.97123000   21.63040000    3.25643000      0.351873   -0.11502000    0.65997200
Se   13.24049000   21.64185000   13.31703000     -1.151964    0.36028600   -0.58657200
Se   19.53834000    4.28819000    3.42061000      0.073975    0.33081800    0.34475600
Se   18.73719000    4.80364000   13.09097000      0.488704   -0.37840000    0.30290300
Se   18.99760000   10.48738000    3.78278000      0.266436   -0.67953300    0.32291500
Se   18.97143000   10.49570000   13.58684000      0.023818   -0.25428200   -0.20722600
Se   19.14481000   16.03505000    3.70358000     -0.793366   -0.93020500   -0.16766100
Se   19.21347000   16.48093000   12.82259000     -0.273167   -0.38827200    0.65562400
Se   18.78133000   22.11113000    4.16264000      0.197123   -0.62782200   -0.38133200
Se   19.03907000   21.76554000   13.18433000      1.063814    0.15523900    0.81718900
