384
23.23808000 23.23808000 19.51320000
Ge    5.78538000    5.82668000    9.85467000      1.403540   -0.72065500    0.16787200
Ge    6.16381000    5.65960000    0.04171000     -1.417381   -0.06924000   -0.61562500
Ge    5.85324000   11.66399000    9.93492000      1.169275    0.86955100   -1.68191200
Ge    5.46915000   11.51527000    0.01285000     -0.182743   -0.55533500   -0.58746600
Ge    6.02258000   17.57225000    9.85432000     -0.986718   -0.84449900   -0.96674000
Ge    5.50023000   17.32913000   19.39669000     -0.701495   -0.14531400    0.92924900
Ge    5.76557000   22.71087000    9.98103000     -0.000865    2.47374000    0.03462000
Ge    5.73636000   23.10753000   19.36437000     -0.301327    0.44580100    0.05065400
Ge   11.26830000    5.83319000   10.00361000      2.240362   -3.87868600    1.15633200
Ge   11.53464000    5.67310000   19.27204000      0.938966    0.52758800    0.07330200
Ge   11.60146000   11.89994000    9.89873000     -0.087584    0.74918600    0.52365300
Ge   11.54055000   11.10519000   19.21073000     -0.900408    0.20594300    1.12560300
Ge   11.47866000   17.51822000    9.72312000     -0.246032   -0.21825200   -0.00095700
Ge   11.82339000   17.14798000    0.10375000      0.557367   -1.13001300   -0.19535200
Ge   11.47992000   23.11151000    9.74838000     -1.471211   -0.22531600    0.33086800
Ge   11.82352000   23.10797000    0.01551000     -1.137338    0.48983400    0.55614200
Ge   17.72320000    6.22239000    9.61362000     -0.549664   -0.25171400   -0.62864500
Ge   17.62091000    6.05719000    0.15454000     -0.330101   -0.15774800   -0.31575100
Ge   17.31036000   12.23470000    9.75774000      0.066761   -1.40642800   -0.64097600
Ge   17.54531000   12.04027000    0.02118000     -0.086772   -1.76801000    0.09813700
Ge   17.12977000   17.70272000    9.41942000      1.026150    0.62180900    0.11485000
Ge   17.15990000   17.50181000    0.37299000     -0.053462   -0.84262600    1.81330000
Ge   17.38530000    0.20146000    9.55301000     -1.159306   -0.06045900    0.31158700
Ge   17.48356000    0.22331000    0.03527000     -0.047804   -0.85516500    0.46962600
Ge    0.06240000    5.69596000    9.56429000     -0.146879    0.31723500    0.05527500
Ge    0.31951000    5.98269000   19.46530000      0.281497   -1.40776200    0.41587700
Ge    0.20385000   11.39716000    9.57208000     -0.698156    1.03968300   -0.64900300
Ge   23.17230000   11.93293000    0.04765000     -0.335069   -1.39190100    0.23889300
Ge    0.09896000   17.03245000    9.44968000      0.221509    1.13883400    0.57532400
Ge   22.87618000   17.86447000    0.36921000      0.663446    0.10888500   -0.43057400
Ge   23.14781000   23.21103000    9.77606000      0.046333   -1.69946300   -0.20626400
Ge   23.06298000   23.07977000   19.42763000     -0.174745    1.23402400   -0.31760200
Ge    3.11649000    5.55332000    7.27643000      0.070469   -0.70430000    0.09522400
Ge    3.18616000    5.60028000   16.93267000      0.105341    1.48358600   -0.73687600
Ge    3.10465000   11.84313000    7.11964000      0.335705    0.61879400    0.66711400
Ge    2.63811000   11.73858000   16.85478000      0.045064   -1.43197500    0.52963500
Ge    2.85768000   17.37133000    7.37895000      1.416828   -0.83876900   -0.79582800
Ge    2.46089000   17.58239000   17.00515000      1.386389   -1.04409800    1.19516300
Ge    3.03472000   23.14818000    7.42670000      0.241892   -0.45455100    1.21027500
Ge    2.78374000    0.30625000   16.84596000      0.675101   -1.47472000    0.36123100
Ge    8.81692000    5.60960000    7.24442000      0.919959   -0.18812500   -0.57226300
Ge    8.69393000    5.56596000   17.16556000     -0.235618    0.48923600   -0.67833500
Ge    8.84045000   11.36035000    7.29599000      0.562579    0.64331100    1.38374900
Ge    8.60130000   11.71759000   17.05803000     -2.221167    0.11732000    0.86774100
Ge    8.67416000   17.12298000    7.22887000      0.368046    1.15748000    0.03562100
Ge    8.75382000   17.41815000   17.37767000      0.737440   -1.10097700    0.47172600
Ge    8.59607000   23.20918000    7.30054000     -0.679694   -0.23117300   -0.46212800
Ge    8.99882000   23.18405000   17.18391000     -0.191176   -1.29801300    0.89065500
Ge   14.65628000    6.16741000    7.43715000     -0.152945   -1.33412700    0.29219600
Ge   14.80548000    5.85406000   17.14892000     -0.207854   -1.28387400    0.55755000
Ge   14.44683000   11.59880000    7.30929000      0.882049   -0.53304600    1.01741000
Ge   14.62594000   11.73294000   17.15319000     -0.890136    0.11674400   -0.60721500
Ge   14.02831000   17.73409000    7.09043000      0.779957   -0.30272000    0.35302200
Ge   14.53801000   17.42010000   17.01568000      0.953776   -1.19801500    0.59085300
Ge   14.01707000    0.23723000    7.25348000      0.058326   -0.81168100   -0.29339900
Ge   14.54376000   23.12569000   17.17457000      0.003185   -0.78671300    0.06583500
Ge   20.71553000    6.08085000    7.24389000     -0.064492   -0.14748400   -0.37166800
Ge   20.62686000    5.84975000   16.98357000     -0.737328    0.19280500    0.77562500
Ge   20.24330000   11.62451000    7.42161000      0.458704   -0.96336400    0.32061800
Ge   20.38147000   11.83503000   17.09811000     -0.159734   -0.43097000   -0.34847700
Ge   20.09635000   17.72237000    7.19267000     -0.346418    0.07797900    0.54295700
Ge   20.14659000   17.87330000   17.54997000     -1.369830   -0.63194700   -1.31525300
Ge   20.16052000   23.03509000    7.33575000      1.940296    1.24676600   -0.33470300
Ge   20.24885000    0.03859000   16.88691000      1.195809    0.58154500   -0.04148000
Ge    3.02949000    2.58043000    4.90594000      0.663824    1.02870700    0.28126500
Ge    2.95112000    2.85317000   14.40176000      0.281923   -0.34483700   -0.04545200
Ge    2.81124000    8.63941000    4.85867000     -0.115421   -0.20211600    0.13766200
Ge    2.96568000    8.80586000   14.47759000     -0.393866   -0.74535100   -0.03863700
Ge    2.88895000   14.66788000    4.69452000      1.053333    0.80767400   -0.15537300
Ge    3.00671000   14.57893000   14.56334000      0.005206   -0.30573000    0.95609900
Ge    2.83947000   20.40829000    5.05789000     -0.498674   -0.86090800   -1.10978000
Ge    2.57188000   20.37434000   14.65153000      1.775907    0.50332800   -0.22600600
Ge    8.85320000    2.83719000    4.72024000     -0.541298    0.19692400   -0.16267500
Ge    9.12331000    2.76131000   14.78619000     -0.368742   -0.09424100   -1.30377900
Ge    8.73901000    8.61846000    4.99054000     -0.120343   -0.14278700    0.12331000
Ge    8.43679000    8.73768000   14.68729000     -0.185887   -0.40174700   -1.08903300
Ge    8.92088000   14.29482000    4.80403000      0.016492    1.02246000    0.10627300
Ge    9.13190000   14.52127000   14.64406000     -1.510363   -0.31623000    0.20105200
Ge    8.59864000   20.44670000    4.91317000     -1.289182    0.19624100    0.89514300
Ge    8.29326000   20.46772000   14.94753000     -0.062693   -1.31779400    1.25799800
Ge   14.72203000    3.06263000    5.01861000      0.257066    1.03539700   -0.28869300
Ge   14.97705000    2.51308000   14.62523000     -1.587416    1.33248400    1.03668900
Ge   14.40064000    8.65077000    4.91890000     -0.547080    0.72959100    0.34336800
Ge   14.52434000    8.48718000   14.76703000     -0.108269    0.59174800    0.20202200
Ge   14.26746000   14.31710000    4.52983000      1.237658    0.70418900    0.38935200
Ge   14.59943000   14.81904000   14.53789000      0.176864    0.17898700    0.54825000
Ge   14.39114000   20.15705000    4.86205000     -0.329180    0.69744100   -0.78560600
Ge   14.77569000   20.30450000   14.51526000     -0.744073   -0.32554100    0.29615900
Ge   20.76257000    2.95876000    5.13450000     -0.369471   -1.64398300   -1.43420800
Ge   20.23998000    3.23365000   14.27561000      0.965181    0.29961500    1.38182400
Ge   20.44869000    8.78572000    4.89344000      0.426276    1.29343200   -0.18744700
Ge   20.36871000    8.72755000   14.72368000      0.284681    0.84685700   -0.92739600
Ge   20.46875000   14.50762000    5.00667000      0.380583    0.47455500   -0.16888500
Ge   20.41062000   15.21199000   14.68695000     -0.621694   -0.96516900   -0.97364500
Ge   20.39243000   20.46049000    4.98089000      0.512096   -0.04001300   -0.76892800
Ge   20.44066000   20.16514000   14.45073000     -1.420094   -0.01864800    0.31098000
Ge    5.99360000    2.85140000    2.34551000     -0.388711    0.23641000    0.13011200
Ge    6.00575000    2.72388000   12.40627000      0.729704   -0.10004700    0.47123800
Ge    5.76314000    8.54985000    2.46754000      0.666865    0.17925700    0.06294100
Ge    5.72462000    8.46467000   12.12958000     -0.102369    0.45545500   -0.03515900
Ge    5.94611000   14.48539000    2.47022000     -1.592613    1.20935600    0.12860600
Ge    6.08047000   14.50680000   12.16378000      0.670718   -0.19366900    0.60954700
Ge    5.81413000   20.51033000    2.39139000     -0.808436   -0.73112000    0.32328900
Ge    5.80787000   20.12373000   12.56844000      0.265692   -0.61604700    0.69404200
Ge   11.57523000    3.01397000    2.28005000      1.224631   -0.14352100    0.00173200
Ge   11.66469000    2.45039000   12.01770000      0.280713    0.42282200    1.51801800
Ge   11.47891000    8.44509000    2.52712000     -0.303599   -0.55836600   -1.35599300
Ge   11.71590000    8.51470000   12.28119000     -0.939634    0.17669800   -1.12710700
Ge   11.35580000   13.89157000    1.93775000      1.215204    0.87077100    0.12836000
Ge   11.85588000   14.49090000   12.03016000     -0.130928    0.50574500    0.75676000
Ge   11.21107000   20.14100000    2.35590000      2.339516    1.68558100   -0.80687000
Ge   11.29747000   20.12672000   12.34194000      0.671870    0.82460600    0.87823300
Ge   17.69120000    3.13737000    2.52404000     -0.313751   -0.90380800   -0.34675600
Ge   17.39999000    3.30590000   11.92146000      0.195576   -1.60772700    0.13670000
Ge   17.61392000    8.91847000    2.74082000     -1.219609    0.41163800   -0.69078700
Ge   17.54934000    9.12131000   12.19469000     -0.361585    0.35375600    0.45521700
Ge   17.66931000   14.49434000    2.66949000     -1.085914   -0.41894000   -0.09281500
Ge   17.54407000   14.96979000   12.05011000     -0.739888    0.22733200   -0.14846800
Ge   17.40998000   20.39772000    3.01314000     -0.053451   -0.13801000   -0.96005200
Ge   17.38984000   20.44573000   12.08987000      0.601756    0.59079600   -0.70975800
Ge    0.16515000    2.77414000    2.51516000     -1.252811   -0.98631200   -0.42300700
Ge   23.20516000    2.74552000   12.23571000      1.206670    0.23220600   -0.98982900
Ge   23.15402000    8.84494000    2.38000000      0.475180   -0.16259700   -0.16064700
Ge   23.07063000    8.69985000   11.74655000     -0.025879   -1.05204200    1.63167800
Ge    0.22237000   14.55009000    2.50906000     -1.455003   -1.32261100   -0.84508100
Ge    0.29037000   14.39010000   12.16090000     -0.086602    0.16938500   -0.82210900
Ge    0.18944000   20.24275000    2.38126000      0.837653    0.88562400    1.48625000
Ge   23.22502000   20.24102000   12.09975000     -0.040112   -1.47770300   -1.07265000
Se    1.32067000    1.33320000    1.06310000      0.859883   -0.09659100   -0.06936800
Se    1.42691000    1.32388000   10.78811000      0.591095    0.87507000    1.35336700
Se    1.33608000    7.98856000    0.62223000      0.731087   -0.38089200    0.71351900
Se    1.44041000    6.93054000   10.99371000     -0.096986    0.99328400    0.45694500
Se    1.63878000   13.19671000    1.11518000     -0.111547    0.26492000    0.17994200
Se    1.57307000   13.02427000   10.47120000      0.553989    0.55342100    1.18836300
Se    1.76844000   18.78672000    1.35455000     -1.046933    0.22992300   -0.04289900
Se    1.51695000   18.66966000   10.83310000     -0.763443    0.22868900    0.01491900
Se    7.32394000    1.65949000    0.69634000     -0.700900   -0.74407600    0.77837600
Se    7.19061000    0.78216000   11.60457000      0.175637    0.07067800   -0.87044600
Se    7.44402000    7.08203000    1.32688000      0.122110    1.00095400    0.54756100
Se    7.43768000    7.20142000   11.06481000     -0.676733   -0.36848400   -0.50907500
Se    6.92595000   12.83471000    1.26234000      1.619237   -0.66658500   -0.47905700
Se    7.56454000   12.89942000   11.17135000     -0.676678   -0.13484100   -0.21837000
Se    7.05100000   18.78497000    1.10919000     -0.455228    0.13770500    0.17515000
Se    7.44432000   18.51707000   11.37463000      0.136805    1.42108700    0.84961900
Se   13.12804000    1.55605000    1.16546000      0.157529   -0.20755200   -0.02992300
Se   13.13726000    1.08801000   10.80955000      0.403356    0.28047800    0.16893400
Se   13.03744000    7.03681000    1.12705000     -0.920339    0.35488600    0.14771700
Se   13.02413000    6.77934000   11.21336000     -0.124954    0.69919500    0.27379600
Se   13.00680000   12.35097000    1.07139000     -0.067974    0.91987300    0.24313000
Se   13.59297000   13.19775000   10.95009000     -1.908728   -0.10884700   -0.04491300
Se   12.91303000   18.64711000    1.49368000      0.300938    0.58648400    0.44454400
Se   12.84384000   18.70090000   11.34882000      0.186127   -0.03288100   -0.78562700
Se   19.03192000    1.61381000    1.05783000      0.013232    0.57205900    0.57475700
Se   18.82863000    1.75995000   10.55586000      0.115598    0.67843200    0.45955800
Se   19.02297000    7.76532000    1.16823000     -0.244520   -0.66180800   -0.01188000
Se   18.93003000    7.91544000   10.66169000      0.817201   -0.22203700    0.64780000
Se   19.07525000   13.53595000    1.02903000      0.324176   -0.51262700    0.20715000
Se   18.94677000   13.44772000   10.90959000      0.291201   -0.02974300   -0.14417900
Se   18.76647000   18.61082000    1.80278000     -0.688982    0.68864600    0.23620400
Se   18.68950000   19.18024000   10.53771000      0.108032   -0.19646900    0.13600500
Se    4.53920000    4.43346000    1.29637000     -0.341913   -0.06353000    0.05357900
Se    4.58793000    4.18997000   11.20094000     -0.354277    0.18869300   -0.41951400
Se    4.18214000    9.79801000    1.10476000      0.258632    0.03825000    0.20332800
Se    4.38619000   10.24629000   10.97580000     -0.814234   -0.93394800    0.41601100
Se    4.07523000   15.65802000    1.39383000      1.450500    0.87220100   -0.68652300
Se    4.70225000   15.80283000   10.82744000     -0.798522    0.30887300   -0.06771000
Se    4.15100000   21.95246000    1.39440000      0.828191    0.22513600   -0.69463200
Se    4.31241000   21.34208000   11.19244000     -0.700581   -0.34793900   -0.18872200
Se   10.09581000    4.43364000    1.19174000     -0.371227    0.27257100   -0.29436300
Se   10.01480000    3.63436000   10.81299000      0.595950    1.36841000   -0.21279400
Se    9.97675000    9.99395000    1.19383000      0.605990   -0.64177400   -0.00631100
Se   10.16879000   10.38038000   11.14686000      1.334823   -0.44496000    0.09603700
Se   10.14509000   15.67349000    0.88958000     -0.050930   -0.41595600    0.22964400
Se   10.14644000   15.97716000   10.98286000      0.362508   -0.57671500   -0.01557800
Se   10.03918000   21.76777000    1.03777000      0.516766    0.15463700    0.04998800
Se    9.93631000   21.62133000   11.14990000      0.314981    0.55818900   -0.60193200
Se   16.13062000    4.35721000    1.14428000      0.600158    0.48280800    0.37980100
Se   16.08385000    4.74858000   10.62094000     -0.434219    0.07073100    0.08676100
Se   16.11801000   10.39217000    1.35722000      0.749841    0.11550000   -0.06296200
Se   16.03316000   10.49802000   10.89749000     -0.447474    0.13749800    0.30217100
Se   15.91797000   15.69034000    1.64468000     -0.078917    0.74849100   -0.58356300
Se   15.92920000   16.34712000   10.79140000     -0.778671   -1.18104900    0.88807400
Se   16.17550000   21.98889000    1.54265000     -0.044011   -0.15304100   -0.20285500
Se   15.99192000   22.13926000   11.12572000     -0.177999    0.03758600   -0.38279400
Se   22.15223000    4.53865000    1.38115000     -0.046338    0.13474300   -0.21226100
Se   21.95037000    4.07216000   10.70595000     -0.907213    0.19281000    0.23321300
Se   21.71625000   10.39135000    1.45163000     -0.029987    1.28074800   -0.74254200
Se   21.65728000   10.33400000   10.57671000      0.168643   -0.65842400    0.83831600
Se   21.80970000   16.03902000    1.53481000     -0.429447   -0.04318700   -0.27230600
Se   22.01601000   15.82847000   10.91765000     -0.340770   -0.37751700    0.34521000
Se   21.83112000   21.65579000    1.35233000     -0.346848    0.32349500   -0.05368200
Se   21.69565000   21.56886000   10.85712000      0.158834    0.37617600    0.08628300
Se    1.28562000    4.18663000    8.23768000      0.612431    0.18186900   -0.12103300
Se    1.81172000    4.41110000   18.37168000     -0.561125   -0.55713900    0.39842100
Se    1.59254000   10.25685000    8.07454000      0.050854   -0.51320900    0.23684900
Se    1.09514000   10.28027000   18.20593000      0.508745    0.88327700   -0.33512200
Se    1.43116000   15.60873000    8.14018000      0.243909    0.19148000    0.06984300
Se    0.66636000   16.39226000   18.18834000      0.495360   -0.03054900    0.22441000
Se    1.45251000   21.64504000    8.70244000      0.434092    0.70294400   -0.37172200
Se    1.39871000   21.95678000   18.07507000      0.087437   -0.15207400    0.04954800
Se    7.15804000    4.38083000    8.27030000     -0.738091   -0.80090900    1.08465500
Se    7.48561000    4.01292000   18.46984000     -0.076397    0.12763600   -0.26807200
Se    7.17370000   10.10238000    8.41634000     -0.441396    0.22579700    0.56863700
Se    7.18020000   10.17969000   18.45372000      0.014805    0.39821700   -0.43257900
Se    7.13343000   15.90867000    8.50321000     -0.138609   -0.23253200    0.11721300
Se    7.35520000   15.91384000   18.75439000     -0.341894    0.27467700   -0.30732100
Se    7.28025000   21.63768000    8.60017000      0.428724   -0.83419600   -0.50739800
Se    7.37573000   21.57055000   18.54163000      0.074639    0.86643100   -0.64233600
Se   13.46968000    4.50752000    8.92623000     -0.729833    1.02425400   -0.41356300
Se   13.02613000    4.16960000   17.99958000      0.385939    0.95383600    0.32565200
Se   12.94874000   10.32741000    8.84924000      0.853677   -0.52861900   -1.16213400
Se   13.10759000   10.00633000   17.97294000      0.642659   -0.66024200   -0.62242200
Se   12.99043000   16.07563000    8.46839000     -0.127107    0.67132400    0.21951200
Se   13.09961000   15.79510000   18.12503000      0.211865    0.18530500    0.02042100
Se   12.77688000   21.73761000    8.46229000      0.716478   -0.38810700   -0.80341500
Se   12.91025000   21.60257000   18.15394000      0.555892   -0.01351800   -0.07252200
Se   19.39890000    4.65830000    8.67850000     -0.432348    0.24875800   -0.20768100
Se   18.80382000    4.60428000   18.14742000      0.294730    0.15221300    0.19015600
Se   18.55927000   10.33548000    8.60856000      0.108999    1.13079100   -0.27171100
Se   18.74925000   10.37143000   18.10809000     -0.019516    0.94834500    0.30942500
Se   18.70123000   16.24195000    8.48145000      0.310582   -0.34823100   -0.52641800
Se   18.39744000   16.27512000   18.45300000      1.735450   -0.64952800   -1.23153300
Se   18.67859000   21.75997000    8.47435000     -0.867316   -0.50499200    0.67278100
Se   18.53429000   22.00932000   17.91897000      0.227224   -0.37095600    0.37142400
Se    4.59332000    1.35204000    8.71782000     -0.098432   -1.39126800    0.21177200
Se    4.54084000    1.51573000   17.85773000      0.253288   -0.16159500    0.57217800
Se    4.16003000    7.09806000    8.81726000     -0.409339    0.38670100   -0.49940400
Se    4.84918000    7.06841000   17.96999000     -0.260236   -0.47024600    0.34863900
Se    4.63630000   13.32702000    8.29888000     -0.027377   -1.18067900    0.60771200
Se    4.01875000   13.02060000   18.31251000      0.389982    0.28010300    0.12464300
Se    4.12112000   18.79880000    8.88304000      0.332928   -0.11788800   -0.03346400
Se    3.87487000   18.92996000   18.44695000      0.495169   -0.45773500   -0.10873000
Se   10.00210000    1.36739000    8.46624000      0.610581    0.56671900    0.69750000
Se   10.25056000    1.42836000   18.46423000      0.569514   -0.10430600    0.11621500
Se   10.10755000    7.08347000    8.68703000     -1.374359    2.09116300   -1.66546500
Se   10.01723000    7.24624000   18.14624000      0.466751   -0.23979900    0.39125500
Se    9.95187000   13.18725000    8.66711000      0.363158   -0.89722700   -0.32338200
Se   10.19282000   12.82939000   18.31083000      0.556219    0.63207800    0.11191400
Se    9.81534000   18.89499000    8.54350000      0.483424   -0.77059200    0.01196300
Se   10.30452000   18.63442000   18.81516000     -1.221235    1.40341200   -1.18101200
Se   15.71787000    1.55921000    8.24233000      0.671104   -0.00687000    0.60355800
Se   15.84987000    1.46333000   18.38151000     -0.317449    0.42877600   -0.02651600
Se   16.23164000    7.79242000    8.29310000      0.118309   -0.99842000    0.30873400
Se   15.79272000    7.38630000   18.74264000      0.133366   -0.17999200   -0.47549900
Se   15.85862000   13.39498000    8.21873000      0.113718   -0.21899800    0.24088200
Se   15.84061000   13.27228000   18.45077000      0.143373    0.38258500    0.03057800
Se   15.82505000   19.27043000    8.34451000     -1.264833   -0.20034900   -0.96159800
Se   15.73147000   18.73195000   18.63719000     -1.124912    1.83147400   -0.36292500
Se   21.68773000    1.32258000    8.63002000     -0.895383    0.05440100   -0.75002500
Se   21.64512000    1.52861000   18.37830000     -0.176177   -1.23809400   -0.42838300
Se   22.02907000    7.56278000    8.62612000      0.000482   -0.77907700   -0.43838000
Se   22.01549000    7.25465000   18.33684000     -0.928937    0.50317800   -0.67990900
Se   21.59813000   12.94721000    8.85037000      0.554759   -0.07156300   -0.16785200
Se   21.56496000   13.33828000   18.53311000      0.157070    0.23328300   -0.29946300
Se   21.91397000   18.71578000    8.49135000     -0.225840    0.24056900    0.01115500
Se   20.98272000   19.40413000   19.15236000      1.127004   -0.36059500   -0.45608800
Se    1.58924000    1.41002000    6.39833000     -0.475823    0.05449800   -0.57493500
Se    1.33881000    1.55732000   15.51968000     -0.557824   -0.02696100    0.18729200
Se    1.61579000    6.99301000    6.07940000     -0.440714   -0.04263900   -0.01419700
Se    1.60763000    7.17768000   15.62625000      0.456091   -0.52534500    0.67588300
Se    1.60319000   13.27610000    6.01807000     -0.841617   -0.67997600    0.26241500
Se    1.17960000   12.97393000   15.52188000      0.791778    0.88891600   -0.47896600
Se    1.39205000   18.86332000    6.32282000     -0.009259    0.63597600   -0.48381300
Se    1.19592000   18.98399000   15.74864000     -2.408627   -0.62489600    0.21663900
Se    7.22331000    1.43291000    5.89882000      0.637243   -0.15911400    0.36410500
Se    7.66880000    1.36431000   15.97894000     -1.689200    0.07641700   -0.30666400
Se    7.34705000    7.16642000    6.29846000     -0.260908    0.28775200   -0.39171000
Se    7.27775000    6.94694000   15.72824000     -0.144261    0.13016300    0.07843100
Se    7.53923000   12.96941000    6.25007000     -0.843498    0.60052400   -0.89722100
Se    7.27156000   13.41174000   16.08429000      0.862226   -0.11087200   -0.61147900
Se    7.15538000   18.72431000    6.18276000      0.734041    0.51316000   -0.61418900
Se    7.09637000   18.44346000   16.21316000     -0.339484    1.42362200   -0.93660900
Se   12.97255000    1.71783000    5.66478000     -0.920208   -0.64649500    0.91142700
Se   13.25721000    1.17054000   15.71216000      0.429913    0.47182300   -0.16520500
Se   12.90286000    6.95968000    5.99269000      0.776620    0.66033200   -0.02593800
Se   13.12712000    6.96497000   15.98319000     -0.107214    0.52988800   -0.64742200
Se   13.07673000   12.90368000    6.02746000     -1.440559    0.34555600   -0.61263700
Se   13.20897000   13.39352000   15.95282000      0.411362   -0.47975600   -0.11450800
Se   12.44983000   19.05402000    5.86483000      0.803952   -0.11038900    0.16387400
Se   13.25368000   18.69222000   15.61774000     -0.706161    0.75443000   -0.43888000
Se   19.10426000    1.74859000    6.33616000     -0.213323   -0.13422000   -0.05884300
Se   19.01645000    1.87353000   15.79587000     -0.622935   -0.44855100    0.16959100
Se   19.02793000    7.29404000    6.00282000     -0.198339   -0.10264900    0.24784900
Se   18.98212000    7.33400000   16.04233000      0.077830   -0.06384400    0.01188300
Se   19.03150000   13.32136000    6.42351000     -1.048515    0.30685100   -0.47225000
Se   19.17647000   13.22320000   15.53801000     -0.553380    0.46542300   -0.11467200
Se   18.70320000   19.54414000    6.29949000      0.060254   -1.52083800    0.20012100
Se   18.62008000   18.96241000   15.70712000      1.689051   -0.18712000    0.52730300
Se    4.69068000    3.97599000    6.17661000     -1.216309    0.43256300    0.10648700
Se    4.52789000    4.20068000   15.50579000      0.014224    0.29201900    0.66626500
Se    4.20320000   10.12684000    5.99377000      1.443233   -0.05380900    0.00075700
Se    4.33088000   10.14230000   15.91937000     -0.583845    0.52889900   -0.01241600
Se    4.49153000   16.11852000    5.70957000     -0.897808    0.45166400    0.91147600
Se    4.24741000   16.04466000   16.21285000     -1.281835   -0.17328000   -0.43264200
Se    4.43855000   21.73954000    6.06749000      0.390688    0.53142600    0.65909100
Se    4.06846000   21.49451000   16.08827000     -0.484387    1.27723300    0.04244100
Se   10.45499000    4.27035000    5.76508000     -0.678193    0.36638400    1.00184200
Se   10.32107000    4.11467000   16.22159000      1.098986    0.42876400   -0.23706000
Se   10.32819000    9.77862000    6.40160000      0.298097   -0.02950200   -0.51952200
Se    9.82107000   10.35192000   15.71630000      1.496029   -0.89970000   -0.79667600
Se   10.37850000   15.85804000    6.15718000     -0.372502   -0.34697200   -0.69012400
Se   10.29200000   15.91784000   16.16775000      0.269050    0.32904100    0.16198200
Se   10.14016000   21.82014000    6.12500000     -0.041085   -0.30923600   -0.22556300
Se   10.12389000   21.45235000   15.98575000      0.607359    0.33362000    0.53588900
Se   16.16047000    4.43485000    6.37664000     -0.703571    0.59325500   -0.07647700
Se   16.20283000    4.51112000   15.63128000     -0.412296   -0.32361200    0.21286500
Se   16.03396000   10.05216000    6.31785000     -1.165877   -0.16019300   -0.51782300
Se   15.87812000   10.21512000   15.84124000      0.439289   -0.24070100   -0.27862000
Se   15.53580000   16.14477000    5.98546000     -0.541159   -0.24521000   -0.61358400
Se   16.22372000   16.16009000   15.78275000     -0.571855   -0.25684900   -0.10281500
Se   15.52115000   22.10131000    5.98353000      0.160800   -0.88212600   -0.21072400
Se   15.94188000   21.38141000   16.28969000      0.614922    0.23810000   -0.51224100
Se   22.13749000    4.72463000    5.60539000      0.295584    0.99667700    1.16037700
Se   22.02567000    4.32170000   15.93200000     -0.607795   -0.35331500   -1.14067800
Se   21.93559000   10.26020000    6.30835000     -0.800942   -0.47547500   -0.45786500
Se   21.86301000   10.45465000   15.77720000     -0.133881   -0.68768000   -0.00379400
Se   21.56371000   16.46148000    5.87691000      0.650150   -0.30012500    0.11406100
Se   21.69237000   16.18862000   16.38815000      0.167177    0.88749600    0.23388700
Se   21.86092000   21.48527000    6.49492000      0.071130    0.89630400    0.01413300
Se   21.83782000   21.52949000   15.78324000     -0.555212    0.99568000    0.51824900
Se    4.59769000    1.29242000    3.63849000     -0.269849   -0.13649400   -0.34779400
Se    4.55488000    1.22784000   13.63794000     -0.351095    0.54347600   -0.37664200
Se    4.35709000    7.20801000    3.85633000      0.325449   -0.73471100   -0.44510700
Se    4.18595000    7.02803000   13.26611000     -0.041772    0.89421100   -0.00642100
Se    4.40865000   13.11944000    3.64427000     -0.408890   -0.29854600    0.40257500
Se    4.68279000   13.19976000   13.60337000     -0.325859   -0.51677600   -0.03184600
Se    4.12753000   18.91874000    3.47186000      0.143202    0.95992900    0.20697400
Se    4.32098000   18.79420000   14.16194000      0.675001    0.12301800   -1.32159100
Se   10.02975000    1.51310000    3.08605000     -0.795027   -0.87705000    0.93888900
Se   10.21464000    1.04670000   13.41089000      0.124025    0.58990200    0.08783600
Se    9.90587000    6.98782000    3.69578000      0.611848    0.51535500   -0.05345800
Se    9.75270000    7.37537000   12.84869000     -0.297527    0.01375400    1.34043200
Se    9.88998000   12.75124000    3.29556000     -0.485538   -1.21061900    0.63382500
Se   10.23866000   12.91128000   13.19151000      0.344890    0.49504800    0.17409500
Se    9.52849000   19.03915000    3.32057000     -0.938979   -1.88668200    0.65986800
Se    9.73712000   18.98773000   13.84087000      0.693438   -0.82865200   -0.89729700
Se   16.29805000    1.70435000    3.97722000      0.520803   -0.35059900   -0.74897900
Se   16.46203000    1.39389000   13.39048000      0.976089   -0.15774700   -1.26238200
Se   15.78768000    7.31121000    3.64039000      1.527901   -0.08538000   -0.50040000
Se   16.31416000    7.47337000   13.59185000      0.263306   -0.30904600   -0.63461800
Se   16.24140000   12.90154000    3.89128000     -0.452231    0.66432300    0.08300300
Se   15.98157000   13.45134000   13.11962000      0.162939    0.06569500    0.14601400
Se   16.05177000   18.51536000    3.84065000     -0.298318    1.48455900    0.50850300
Se   16.26210000   18.83771000   13.31529000     -0.501408   -0.26141700    0.48301400
Se   22.08302000    1.15794000    3.84666000     -0.362651    1.46809000    0.19541500
Se   21.56950000    1.48885000   13.37223000     -0.034911   -0.30406000   -0.16826200
Se   21.50168000    7.36838000    3.22666000      0.508936   -0.11688300    0.67371900
Se   21.51570000    7.13570000   13.25047000      0.477328    1.22865700   -0.07408700
Se   22.18224000   13.13172000    4.11518000     -0.194747   -0.28395500   -0.62077800
Se   21.83059000   13.44861000   13.51954000     -0.250298    0.03871900    0.47623700
Se   21.70482000   18.94141000    3.43372000     -0.467380    0.12492400    0.76599600
Se   21.99550000   18.66788000   13.41183000     -0.372144    0.09466500   -0.05700000
Se    1.46500000    4.12098000    3.81709000      1.249507    0.49543800    0.46203400
Se    1.53632000    4.32193000   13.23865000     -0.449537   -0.09985900   -0.32668500
Se    1.54046000   10.10541000    3.59315000     -0.608588    0.43282800    0.03116900
Se    1.18093000   10.08198000   13.40336000     -0.044273   -0.23676300   -0.57308900
Se    1.15186000   16.10486000    3.78796000      1.524690    1.17794200    1.07981400
Se    1.80034000   15.97944000   13.14611000     -0.222185    0.43661800   -0.33663800
Se    1.34100000   21.94604000    3.93242000     -0.152998   -1.06903600   -0.46997400
Se    1.37385000   21.74392000   13.20753000      0.292127    0.92237700   -0.02281900
Se    7.13322000    4.37114000    3.85158000      0.612349   -0.62114500   -0.27355200
Se    7.49698000    4.26765000   13.69359000     -0.153129   -0.92233200   -0.29376100
Se    7.18566000   10.06465000    3.91579000     -0.295008   -0.03803200   -0.68365300
Se    6.75078000   10.08773000   13.50228000      0.716131   -0.30843500    0.49312600
Se    7.53260000   15.89556000    3.47753000      0.267294   -0.15626200    0.58323200
Se    7.51163000   15.92112000   13.45299000      0.235172    0.10255500    0.15825200
Se    6.91109000   21.98660000    3.98433000      0.459526   -0.54669500   -0.40633000
Se    6.96803000   21.94207000   13.87358000     -0.742502    0.16054700   -0.94629700
Se   13.01483000    4.33129000    3.68033000      0.383737    0.25154300    0.02475000
Se   13.21658000    3.72993000   13.53547000     -0.557418    0.62890400   -0.74989700
Se   13.04844000    9.98318000    3.31273000      0.448862    0.29925100    1.02402800
Se   13.06440000    9.86974000   13.50528000      0.439778    1.17318900    0.58672300
Se   12.62706000   15.55576000    3.26228000      0.200273   -0.61982300    0.10060500
Se   12.83376000   16.16849000   13.59715000      0.077426   -0.83244200   -0.38977500
Se   13.01845000   21.62029000    3.23856000     -0.042692   -1.00575200    0.61509100
Se   13.21850000   21.65367000   13.33261000     -0.677431   -0.41941700   -0.12012200
Se   19.53306000    4.28030000    3.46578000     -0.050324    0.35677100    0.30094700
Se   18.74302000    4.76212000   13.18572000      0.655308    0.16862800    0.23195700
Se   19.03395000   10.54508000    3.80934000     -0.040250   -1.08474300    0.29126700
Se   18.99732000   10.50380000   13.53417000      0.115165   -0.87365600   -0.07257600
Se   19.15236000   15.98226000    3.68301000     -0.082344    0.13264000    0.30816200
Se   19.17167000   16.45695000   12.80641000      0.391694    0.19411000    1.02321200
Se   18.80830000   22.06043000    4.16429000     -0.111667   -0.21058200   -0.54521800
Se   19.07661000   21.75093000   13.13880000      0.229735   -0.15205400    0.36259800
