384
23.23808000 23.23808000 19.51320000
Ge    5.86640000    5.85615000    9.91402000     -0.061227   -0.92259500   -1.02274800
Ge    6.06069000    5.70125000    0.02646000     -1.300205   -0.83087400   -0.20037400
Ge    5.88162000   11.66850000    9.99287000      0.956960    0.84655500   -1.43958200
Ge    5.53605000   11.52656000    0.02843000     -0.618768    0.45683800   -0.99118100
Ge    5.92335000   17.47718000    9.82400000      0.391334    1.55972400   -0.11752100
Ge    5.41750000   17.30449000   19.40056000      0.714659   -0.12079700    1.05181500
Ge    5.84663000   22.85455000    9.86425000     -1.320073    0.93907200    0.99126800
Ge    5.71908000   23.15077000   19.28016000     -0.182315   -0.28319300    0.23040600
Ge   11.30976000    5.74125000    9.99419000      0.388559   -2.64016200   -0.52966300
Ge   11.58277000    5.71804000   19.29192000     -0.801973   -0.15286400   -0.54974200
Ge   11.59600000   11.97103000    9.87527000      0.599441   -0.36913800    0.43190200
Ge   11.51404000   11.00736000   19.29646000     -0.701483    0.25099000   -0.25276600
Ge   11.51125000   17.48233000    9.82902000      0.126683   -0.01905700   -1.10514900
Ge   11.73327000   17.10986000    0.19809000      0.190555   -0.11017500   -1.29563700
Ge   11.52628000   23.09629000    9.69473000     -0.152698    0.03733200    1.11275900
Ge   11.78577000   23.11646000    0.06358000     -1.004990    0.85953500    0.33567700
Ge   17.61476000    6.33156000    9.53643000      0.455602   -0.89070000   -0.38663000
Ge   17.63317000    6.09258000    0.04197000      0.314208   -0.41843600    1.01521700
Ge   17.23291000   12.11789000    9.69432000      0.310264    0.91220800    0.03868700
Ge   17.52838000   11.96895000    0.08268000     -0.543448    0.27301400    0.50354300
Ge   17.12601000   17.75658000    9.39947000      0.152426   -1.50136500    0.75257500
Ge   17.19227000   17.47469000    0.48282000     -0.583739   -0.62133800   -0.34304000
Ge   17.29144000    0.16583000    9.52539000     -0.403750   -0.00546100   -0.10106200
Ge   17.35519000    0.28483000    0.08238000      1.712473   -0.70312200    0.95794000
Ge    0.03967000    5.69567000    9.67512000      0.470061   -0.46958400   -0.74293700
Ge    0.11381000    5.94666000   19.41092000      1.680301   -1.32866900    0.35263000
Ge    0.24829000   11.35864000    9.50523000     -0.625317    1.29781600    0.44502700
Ge   23.08375000   11.91358000    0.03280000     -0.142766   -0.66969700    1.23057300
Ge    0.16137000   17.24030000    9.44384000     -0.313424   -0.93385800    0.77755300
Ge   22.88068000   17.77551000    0.33237000     -0.021116    0.92694900   -0.07893800
Ge   23.07277000   23.10107000    9.70356000      1.739092   -0.56883400    0.38028600
Ge   22.90826000   23.14343000   19.38174000      0.735085    0.82720000   -0.21290300
Ge    3.10684000    5.51531000    7.31862000      0.099284   -1.06493000   -0.02871600
Ge    3.18111000    5.69641000   16.93720000     -1.053724   -0.73280700   -0.67746800
Ge    3.15765000   11.75829000    7.11511000      0.723137    0.11655500    1.12869600
Ge    2.73862000   11.68828000   16.93198000     -0.684468    0.26534900   -0.15753000
Ge    2.92523000   17.45223000    7.26200000      1.092890   -1.20748600    0.31328900
Ge    2.57214000   17.61539000   16.95610000      0.274901   -0.18684200    0.55942700
Ge    3.00639000   23.14133000    7.46452000      0.526144   -0.20075000    0.93007200
Ge    2.68228000    0.15136000   17.00703000      1.436519    0.14202900   -0.63972100
Ge    8.74655000    5.49566000    7.16462000      0.185368    0.11658300    0.42128100
Ge    8.70470000    5.60056000   17.20789000      0.502326    0.62806000   -0.97575700
Ge    8.91199000   11.40687000    7.33567000     -0.506144    0.77176500    0.42708400
Ge    8.54426000   11.74175000   17.07048000      0.205062   -0.80403900   -0.41720600
Ge    8.68120000   17.20855000    7.17474000      0.513970    0.48804200    0.35046500
Ge    8.75629000   17.38497000   17.42990000      0.365541   -0.53914400   -0.79426600
Ge    8.62082000    0.04868000    7.27330000     -0.073234   -0.08858600    1.36113900
Ge    8.91242000   23.20614000   17.17616000     -0.395313    1.05981800    1.01856100
Ge   14.73414000    6.02165000    7.47899000     -0.037113   -0.53274600   -0.03764400
Ge   14.82957000    5.80613000   17.25457000     -0.014272   -0.25678600   -1.14398500
Ge   14.41431000   11.55900000    7.34277000     -0.631733    1.46518900    0.38762900
Ge   14.48195000   11.84160000   17.23393000     -0.145465   -1.13789800   -1.31139400
Ge   14.17610000   17.64404000    7.08658000     -0.795781    0.60514500    0.13309600
Ge   14.64561000   17.36143000   17.11015000     -0.313475   -0.67215600   -0.32233000
Ge   13.91427000    0.24616000    7.24259000      1.275583   -1.47528000   -0.54543300
Ge   14.63742000   23.09505000   17.21875000     -0.408193   -0.93920300   -0.38067300
Ge   20.63264000    6.06082000    7.25838000      0.510377   -0.73050800   -0.64250400
Ge   20.57768000    5.73456000   16.90967000     -0.342669    0.43858400    0.88071400
Ge   20.28207000   11.57945000    7.40865000      0.063363   -0.56160600    0.35503900
Ge   20.42375000   11.81764000   17.13233000     -0.945199   -0.04812800   -0.28501200
Ge   20.08861000   17.90124000    7.12863000     -0.269471   -1.40592000    1.29299000
Ge   20.16817000   17.80287000   17.47356000     -0.979038    0.87862800    0.44660800
Ge   20.19441000   23.15170000    7.32050000     -0.072270   -0.54365500   -0.28680600
Ge   20.37543000    0.05679000   16.89446000      0.176353    0.39172400   -0.58877500
Ge    3.00663000    2.61783000    4.86446000      2.486477    0.08257700   -0.49900100
Ge    3.04050000    2.96616000   14.37271000     -1.159076   -0.79728800    0.53834200
Ge    2.84024000    8.60064000    4.82013000      0.144184    0.38952000    0.72247100
Ge    2.91431000    8.79190000   14.44252000     -1.153670   -0.58835000    0.11377600
Ge    3.02998000   14.77099000    4.70328000     -0.557572   -1.28936400   -0.05258900
Ge    3.03754000   14.46357000   14.59326000     -0.599300    1.57674800   -0.11814100
Ge    2.86294000   20.29527000    5.01901000      0.252740    1.27860400   -0.80587200
Ge    2.64721000   20.38148000   14.55466000      0.948726   -1.09830000    1.26763500
Ge    8.76496000    2.82252000    4.62121000      0.043888    0.16031200    1.12104400
Ge    9.08999000    2.69694000   14.62964000     -0.357662    0.01814100    0.91491300
Ge    8.71156000    8.66013000    5.00071000     -0.358214   -1.20847900   -0.29050100
Ge    8.48785000    8.75486000   14.65057000      0.007358   -0.31751200   -0.16900000
Ge    8.94014000   14.38750000    4.85223000     -0.427149   -0.50380300   -1.69775300
Ge    8.99514000   14.46396000   14.64642000     -0.493041    0.15940100    0.80357700
Ge    8.53929000   20.46151000    4.94805000     -0.139575   -0.04171500    0.10832500
Ge    8.29691000   20.33249000   14.98704000      0.349966   -0.47062800    0.83712700
Ge   14.61448000    3.13899000    4.90433000      0.680111    0.15511300   -0.07931300
Ge   14.81431000    2.59075000   14.57595000      1.101840    0.51903800   -0.14132400
Ge   14.39382000    8.62328000    4.88312000     -0.013348    0.95978700   -0.13050300
Ge   14.61433000    8.58460000   14.85196000     -0.269898    0.16602000   -0.86718500
Ge   14.42785000   14.41308000    4.51279000     -0.220744   -0.87231600    0.78985100
Ge   14.69110000   14.81689000   14.53548000     -1.907715   -1.04911900   -0.47174000
Ge   14.37541000   20.13668000    4.91728000      0.302109    0.79774300   -0.71111700
Ge   14.84988000   20.29598000   14.56467000     -2.262293    1.03769200    1.23600300
Ge   20.70046000    2.90679000    5.12194000      0.952833    0.44178400   -1.30576100
Ge   20.41259000    3.22944000   14.32974000     -0.262199    0.15980100    1.04900400
Ge   20.31766000    8.80889000    4.90496000      0.284666   -0.67607600   -0.70569100
Ge   20.42276000    8.75385000   14.75049000     -0.893009   -0.20970800   -1.14337000
Ge   20.59092000   14.54761000    5.00856000     -0.265689   -0.59192900    0.67843300
Ge   20.46451000   15.19708000   14.62632000      0.105075   -0.02531400   -0.54652500
Ge   20.42860000   20.45241000    4.96275000     -0.148533   -0.59512100   -0.70581800
Ge   20.01642000   20.14749000   14.49855000      3.079436    0.63195000   -0.28799700
Ge    6.08043000    2.87191000    2.33908000     -1.313242    0.12155100    0.07086800
Ge    6.03116000    2.78923000   12.27616000      0.420323    0.47528700    0.56670500
Ge    5.72482000    8.57138000    2.59258000      0.102067    0.25372000   -0.95272100
Ge    5.66294000    8.46823000   12.14957000     -0.144198   -0.36633300   -0.39049900
Ge    5.92942000   14.48211000    2.34859000      0.065139    0.26824800   -0.16306800
Ge    6.14885000   14.57972000   12.28620000      0.409854    0.43091500   -0.61915200
Ge    5.76481000   20.42656000    2.42399000      0.197723   -0.47639900   -0.84855300
Ge    5.82212000   20.24105000   12.64158000     -0.857720   -1.09441600   -0.59678000
Ge   11.64394000    3.02635000    2.17632000     -0.098803    0.84074300    0.31987700
Ge   11.75097000    2.43102000   12.21893000     -0.701004   -0.47951300   -0.26105000
Ge   11.50339000    8.43172000    2.48876000     -0.779224   -0.43795600   -0.85789100
Ge   11.65222000    8.49565000   12.14302000     -0.247880    1.57498100    0.57960500
Ge   11.46446000   14.00905000    1.99135000     -0.225376   -1.04670900    0.49557500
Ge   11.85389000   14.47412000   12.10056000     -1.329658   -0.46123000    0.20610100
Ge   11.33528000   20.14873000    2.25010000     -0.920575    1.95314600    0.74256400
Ge   11.31630000   20.12961000   12.43166000      1.572747    1.07646800   -0.67749000
Ge   17.65742000    3.03495000    2.50681000     -0.107392    0.89698500    0.15734600
Ge   17.48839000    3.21389000   12.02806000      0.512726   -0.70627700    0.00557200
Ge   17.53229000    8.96961000    2.76191000      0.305474    0.02894800   -0.81338300
Ge   17.52659000    9.06452000   12.22869000      0.651729    0.22903000   -0.11989300
Ge   17.78289000   14.51862000    2.71126000     -3.558164   -0.68979200   -0.23057100
Ge   17.54896000   14.98419000   12.04761000     -1.079490   -0.03438600   -0.60429400
Ge   17.25254000   20.40340000    2.95523000      1.036399   -0.85991200   -0.07197800
Ge   17.38220000   20.47663000   11.86966000     -0.175986    0.48970500    1.58686900
Ge    0.15439000    2.75516000    2.52985000     -0.515617    0.92494000    0.30030900
Ge    0.17583000    2.74235000   12.18516000     -1.350221    0.42608700   -0.96710900
Ge   23.17973000    8.80276000    2.42768000     -0.677891   -0.20471000    0.08751600
Ge   22.85721000    8.55913000   11.78975000      1.040120    0.24207400    0.60555700
Ge    0.13182000   14.49522000    2.52808000     -0.316933    0.41772500   -0.40274400
Ge    0.21591000   14.34006000   12.14827000      0.797458    0.79404200   -0.87232500
Ge    0.24539000   20.39828000    2.40915000     -1.034679    0.50918400    1.01533700
Ge    0.01948000   20.09020000   12.06173000     -1.051376    0.08097200    0.16193300
Se    1.17960000    1.30877000    1.09721000      1.541920   -0.47916100   -0.47482800
Se    1.43253000    1.38693000   10.78540000      0.258281   -0.83865500   -0.20643100
Se    1.22093000    7.93165000    0.70492000      1.011096   -0.83032100   -0.18134500
Se    1.37274000    6.85807000   11.19324000     -0.144428    1.08306500    0.00263100
Se    1.58570000   13.11141000    1.13976000     -0.407132    0.56952600    0.41500600
Se    1.60188000   13.02182000   10.53858000      0.027338    0.12507300    0.77170200
Se    1.65318000   18.88086000    1.40646000     -0.613019   -0.59224800   -0.61339100
Se    1.46156000   18.83591000   10.73555000      0.784330   -0.26539400   -0.19592200
Se    7.17536000    1.62110000    0.67362000      0.753763   -0.46977400    0.58712000
Se    7.05785000    0.81041000   11.59998000      1.258534   -0.32491800   -0.78735700
Se    7.27694000    7.18893000    1.36911000      0.558425    0.27636000    0.13075100
Se    7.41990000    7.16817000   11.09072000     -0.313960    0.19367000    0.01191100
Se    7.03977000   12.71577000    1.23056000      1.331002    0.86611300    0.56508100
Se    7.60764000   13.02272000   11.12582000     -0.957348   -0.21903000    0.08221500
Se    7.13867000   18.64171000    1.13810000     -1.417855    0.53887900    0.26126100
Se    7.36856000   18.47599000   11.44624000     -0.508117    1.35154500    0.13513600
Se   13.20724000    1.57174000    1.11198000     -0.087426   -0.13376800    0.09061700
Se   13.26809000    1.18214000   10.84782000     -0.763714   -0.19165700   -0.19010200
Se   12.95028000    7.04669000    1.07557000      0.659425    0.69831900    0.70201800
Se   12.93850000    6.70587000   11.30346000      0.599465    0.56660400    0.18898400
Se   12.98436000   12.34726000    0.99937000      0.155516    1.20410700    0.62307700
Se   13.45472000   13.12497000   11.03342000     -0.858615   -0.21781600   -0.45100400
Se   12.84631000   18.64622000    1.53990000      1.742615   -0.62935200   -0.16851400
Se   12.94370000   18.67237000   11.27697000     -0.353860    0.78539000   -0.05688500
Se   19.04414000    1.73802000    1.16453000     -0.339112   -0.87847900   -0.49387500
Se   18.74472000    1.72465000   10.55957000      0.585727    0.29853600    0.20922400
Se   19.10051000    7.81183000    1.21361000     -0.970569   -0.88569300   -0.03482800
Se   18.92628000    7.92244000   10.58468000      0.613186    0.00278100    0.96218300
Se   19.02674000   13.54853000    1.11283000      1.070735   -1.34068600   -0.88452700
Se   18.88019000   13.45044000   10.85023000      0.048215   -0.24280400   -0.26011500
Se   18.76720000   18.71586000    1.72402000     -0.589936    0.74837000    0.51053200
Se   18.66357000   19.20156000   10.49251000      0.978530   -0.71852900   -0.30509300
Se    4.46850000    4.27006000    1.28388000      0.268096    0.66271800   -0.31308700
Se    4.56835000    4.13768000   11.07089000     -0.213078    0.60748400   -0.43172100
Se    4.29170000    9.91152000    1.06470000     -0.662512   -0.94153300    0.82082400
Se    4.37189000   10.33284000   11.16037000     -0.596143   -0.62335900    0.00165900
Se    4.16078000   15.66748000    1.30895000      0.428327    0.82430100   -0.75776400
Se    4.70717000   15.90186000   10.85105000     -1.458854   -1.63840900    1.10100300
Se    4.19628000   21.94834000    1.29441000      0.839312   -0.04826800   -0.48447200
Se    4.23400000   21.48287000   11.09321000      0.827311   -0.43265600    0.21110600
Se    9.94196000    4.53856000    1.16834000      1.523701   -0.49127400   -0.14988300
Se   10.02634000    3.58239000   10.96096000      1.063589    1.29172300   -0.05850000
Se    9.94568000    9.79153000    1.10019000      0.398520   -0.31333400    0.35898200
Se   10.25443000   10.46345000   11.22081000      0.619073   -0.68890700   -0.14237100
Se   10.07541000   15.67184000    0.95652000     -0.076318   -0.59508300    0.31264500
Se   10.19138000   15.98553000   11.03528000     -0.173263   -0.87879900    0.15486300
Se    9.99884000   21.85017000    1.05963000      1.090834   -0.49863100    0.43179800
Se   10.02456000   21.72013000   11.09513000      0.326405   -0.07687600   -0.05432700
Se   16.08407000    4.35405000    1.19553000      1.082837    0.63445000    0.04638100
Se   16.26090000    4.77529000   10.78272000     -1.079259    0.04446500   -0.07979400
Se   16.19692000   10.33929000    1.30633000     -0.371151    0.23565400    0.01949600
Se   16.09738000   10.51262000   10.97540000     -1.417456   -0.18895400    0.46352700
Se   15.92459000   15.59279000    1.46795000      0.596191    0.62071100    0.24268300
Se   15.79851000   16.24132000   10.78073000      0.768338    0.04902200    0.01526800
Se   16.13185000   21.94702000    1.57197000     -0.708666    0.42229000   -0.65368800
Se   15.98931000   22.22935000   11.20020000     -0.811934   -0.05028400   -0.43462600
Se   22.15170000    4.52998000    1.38601000     -0.675490   -0.08592700    0.18030800
Se   21.89047000    4.15022000   10.71250000     -0.315616   -0.76249700    0.93479900
Se   21.68952000   10.38656000    1.49901000      0.195927    0.88756900   -0.67179400
Se   21.64014000   10.28153000   10.47017000      0.490853   -0.61369900    0.91385700
Se   21.61440000   16.01894000    1.48516000      0.816929   -0.10372900   -0.06473000
Se   22.03693000   15.92657000   10.97590000      0.125355    0.05918700   -0.46317100
Se   21.76124000   21.71748000    1.24420000     -0.440253   -0.60494500    0.91641500
Se   21.75038000   21.53351000   10.81992000     -0.267243   -0.04852000    0.49117400
Se    1.34199000    4.15715000    8.22574000      0.016134    0.55182800    0.49920200
Se    1.67127000    4.30408000   18.33650000      0.000555    0.84045200   -0.07653500
Se    1.59486000   10.19298000    8.07616000      0.309223   -0.74819900   -0.20574800
Se    1.14869000   10.49050000   18.26065000      0.374497   -0.98721500   -0.57180600
Se    1.50767000   15.72882000    8.15349000     -0.067440    0.26341900    0.16026400
Se    0.81506000   16.47180000   18.21917000      0.313713   -0.58156100    0.12829100
Se    1.53587000   21.63086000    8.60624000     -0.188917    0.66620300    0.10805600
Se    1.36708000   21.89000000   18.23368000     -0.506682   -0.28011500    0.21127400
Se    7.07552000    4.25795000    8.34728000      0.050818    0.14753700    0.65033000
Se    7.50588000    4.04284000   18.44867000     -0.717451    0.47953200    0.22751100
Se    7.23460000   10.16615000    8.46419000     -0.529013    0.07844500    0.57274500
Se    7.21668000   10.37506000   18.41537000      0.022703   -1.67921400   -0.33283100
Se    7.14877000   16.02883000    8.51181000      0.272898   -1.14106000   -0.51599100
Se    7.31955000   15.93670000   18.68779000     -0.503587   -0.20920100   -0.11279200
Se    7.28253000   21.67044000    8.57650000      0.969607   -0.67739800   -0.79937100
Se    7.60022000   21.72363000   18.49858000     -1.331789    0.12153300    0.12379500
Se   13.42602000    4.46546000    8.85315000     -0.712716    0.74353500   -0.01487500
Se   13.27902000    4.26518000   17.99452000     -1.264539   -0.36624400    1.18061600
Se   12.92435000   10.31752000    8.76435000      0.112043   -0.25292800   -0.36281100
Se   13.23418000    9.97861000   18.00847000     -0.222331   -0.41151400    0.14248200
Se   13.00187000   16.07472000    8.41579000     -0.407840    0.42037300    0.56678800
Se   13.12488000   15.82172000   18.14375000     -0.213557   -0.02744400    0.42765300
Se   12.73166000   21.62181000    8.36193000      0.626285    0.36701800   -0.49789700
Se   12.90401000   21.62483000   18.22387000      0.878645   -0.03174400   -0.44732300
Se   19.45749000    4.66910000    8.72314000     -1.275802    0.25553600    0.09438800
Se   18.88578000    4.56430000   18.22616000      0.127072   -0.31993000   -0.08302900
Se   18.43845000   10.44726000    8.65009000      1.183154   -0.41461600   -1.03379800
Se   18.66944000   10.44764000   18.33136000      1.362963   -0.22577600   -1.11050400
Se   18.73084000   16.24166000    8.49218000      0.362622    0.66086100   -0.64025600
Se   18.55192000   16.24732000   18.45870000      0.432091    0.00658000   -0.28348400
Se   18.64233000   21.69358000    8.44006000     -0.168095    1.02564100    0.32141100
Se   18.64258000   22.12567000   18.07610000     -0.023117   -0.59849400    0.21197800
Se    4.64638000    1.31038000    8.66794000     -0.411347   -0.32220400   -0.08478500
Se    4.54171000    1.51180000   17.90715000     -0.613297   -0.61050800    0.10144200
Se    4.13466000    7.07676000    8.72392000      0.583669    0.32186800    0.44300300
Se    4.75698000    7.06153000   17.92783000      0.471647    0.50935400    0.94009500
Se    4.53558000   13.26286000    8.47216000      0.078974   -1.12909300    0.33592800
Se    4.10102000   13.03101000   18.29414000      0.497592    0.34103900    0.19397700
Se    4.03720000   18.76794000    8.97948000      0.395779    0.16008000   -0.54923400
Se    4.01417000   18.91387000   18.40854000      0.032876    0.18587800   -0.28685200
Se   10.08062000    1.41407000    8.61390000     -0.184456    0.12179000   -0.19409700
Se   10.22391000    1.44187000   18.56831000      0.397244   -0.30737700   -0.49362100
Se   10.03289000    7.07714000    8.60661000     -0.279654    0.05041200   -0.25859700
Se   10.04605000    7.33096000   18.14005000      0.590313   -0.89590000    0.29684400
Se    9.93689000   13.15993000    8.67410000      0.262275    0.04038800   -0.37864700
Se   10.17986000   12.77748000   18.30682000      1.138415    0.41371800    0.47431700
Se    9.87884000   18.83059000    8.51933000      0.599845   -0.36856400    0.25586500
Se   10.24290000   18.71326000   18.76231000     -0.177465    0.40154900   -0.51807800
Se   15.74695000    1.52389000    8.10831000      0.425726   -0.08975400    0.72315600
Se   15.79358000    1.51288000   18.44294000     -0.526875    0.79783600   -0.17185200
Se   16.26606000    7.83817000    8.15369000     -0.446170   -1.12277800    0.27199000
Se   15.86267000    7.34385000   18.67752000     -0.056734    0.85785900   -0.28300400
Se   15.74721000   13.40203000    8.28370000     -0.057194   -0.55211300    0.25969300
Se   15.82925000   13.24098000   18.41852000      0.815536    0.92943600    0.72371300
Se   15.76300000   19.23376000    8.30954000     -1.115697    0.22508800   -1.02872100
Se   15.71339000   18.79478000   18.54349000      0.689092    0.84683100    0.93587700
Se   21.65418000    1.25197000    8.56726000     -0.180592    1.11130000   -0.16689900
Se   21.47858000    1.52027000   18.49276000      0.108922   -0.21168300   -0.66221800
Se   21.97779000    7.39300000    8.63092000      0.430477    0.57785100   -0.09153700
Se   21.93319000    7.23399000   18.21156000     -0.983987    0.55758900   -0.63741900
Se   21.61576000   12.87018000    8.90421000      0.361846    0.04749300   -0.46226000
Se   21.56279000   13.36544000   18.55962000     -0.173652    0.47549400   -0.57964900
Se   21.97130000   18.81854000    8.44803000     -0.583153    0.54439300   -0.29041300
Se   21.06545000   19.52778000   19.10060000      0.975197   -1.40554700   -0.85943400
Se    1.72150000    1.38099000    6.25232000     -1.923454   -0.40227900    0.29578000
Se    1.44149000    1.53378000   15.53995000     -0.313970    0.02905500    0.12118000
Se    1.73075000    7.05629000    6.21428000     -1.331167    0.29088200   -0.34061600
Se    1.60714000    7.09635000   15.61809000      0.353899   -0.14596000    0.44885800
Se    1.70983000   13.10339000    5.99493000     -0.641077    0.97149100   -0.77829700
Se    1.34504000   13.13441000   15.55575000      0.308935   -0.48684000    0.29257700
Se    1.43134000   18.86817000    6.22150000     -0.676489    0.43661200   -0.36302700
Se    1.12778000   18.90648000   15.64414000     -0.463820   -0.10386300    0.09290900
Se    7.32440000    1.38796000    5.93338000     -0.808349    0.51423700   -0.33864900
Se    7.48627000    1.38482000   15.96431000     -0.170934    0.20073600   -0.42824400
Se    7.27985000    7.15941000    6.31769000      0.039168    0.19588400   -0.54983100
Se    7.29729000    6.93323000   15.79253000     -0.044998    0.48775400   -0.35368200
Se    7.52875000   12.91439000    6.00121000     -0.372732   -0.44702200    0.39205500
Se    7.22432000   13.39521000   16.23204000      0.310397    0.58629100   -1.21293500
Se    7.19858000   18.73610000    6.13193000     -0.008469    0.60817000   -0.48242200
Se    7.03653000   18.49975000   16.14785000      0.672236    0.68295100   -0.13300100
Se   12.89553000    1.76645000    5.73427000     -0.744804   -0.33843400    0.29645300
Se   13.37000000    1.17758000   15.67784000     -0.614043   -0.57023200    0.60081800
Se   13.05106000    7.00400000    5.99412000      0.219704    0.05171200    0.28584600
Se   13.18724000    6.97291000   15.99245000      0.420021    0.58347500   -0.55823700
Se   13.01102000   12.96138000    5.98589000      0.072429    0.03179200   -0.47293700
Se   13.12492000   13.21475000   15.86973000      0.351713    0.65496700   -0.55654000
Se   12.45651000   19.00709000    5.75896000      1.199906   -0.66969400    0.83069400
Se   13.30442000   18.70726000   15.72632000     -0.091799    0.51443700   -0.35067500
Se   19.06585000    1.86466000    6.35650000     -0.527568   -0.74325300    0.35444800
Se   19.05748000    1.87132000   15.79113000      0.033301   -0.53946400    0.16331900
Se   18.97011000    7.30498000    6.14060000     -0.397504    0.29328600   -0.18215800
Se   18.97927000    7.28189000   16.09571000      0.316269    0.43907600   -0.58971300
Se   19.01747000   13.32773000    6.53854000      0.043688    0.65842000   -1.16571700
Se   19.32377000   13.31155000   15.43029000     -1.187186   -0.87613400    0.62555600
Se   18.66533000   19.62120000    6.38469000      0.224468   -1.03367100   -0.51998800
Se   18.63765000   18.97880000   15.79675000     -0.700021   -1.28980000    1.37659100
Se    4.53785000    4.00950000    6.08024000      0.002284    0.41423800    0.26718900
Se    4.56956000    4.18207000   15.50216000      0.306306    1.31940500    1.43454000
Se    4.31281000   10.06128000    6.00796000      0.959633   -0.25595000   -0.23741400
Se    4.19635000   10.09560000   15.96437000      0.523818    0.11671700   -0.12154700
Se    4.47146000   16.17151000    5.76971000      0.644260    0.93273100    1.00349800
Se    4.15969000   15.95347000   16.23103000     -0.290263   -0.25911000   -0.25575200
Se    4.43773000   21.84149000    6.17555000      0.062018   -1.00168300   -0.62423900
Se    4.08224000   21.55304000   16.02062000     -0.556447    0.93191800    0.31203400
Se   10.31281000    4.15115000    5.84110000     -0.200702    0.44760000    0.72688900
Se   10.31329000    4.06942000   16.27430000      0.167404   -0.06882500   -0.94175100
Se   10.25956000    9.65315000    6.50178000      0.632909    0.37941500   -0.28535700
Se   10.00920000   10.22182000   15.78108000     -0.525236    0.09998000   -0.00466400
Se   10.32594000   15.81925000    6.05977000      0.284242    0.55909100    0.20099500
Se   10.36184000   15.98642000   16.05636000     -0.709523    0.01277100    0.13305300
Se   10.05899000   21.91277000    6.19038000      0.767300   -1.36708900   -1.08554400
Se   10.07422000   21.59851000   16.08118000      0.866719   -1.21922900   -0.75728300
Se   16.16239000    4.27643000    6.35161000     -0.612460    0.82135500    0.04724500
Se   16.10556000    4.41850000   15.63322000      0.040086   -0.01544500    0.34684700
Se   15.92958000   10.17330000    6.32625000     -0.038278   -1.12390200   -1.18378700
Se   15.87213000   10.34649000   15.82371000      0.361842    0.13916100    0.24535300
Se   15.50980000   16.00074000    6.00550000      0.833033    0.03462500   -0.53210900
Se   16.17145000   16.04295000   15.72305000      0.852389    0.67412600    0.87293800
Se   15.69177000   22.06815000    5.98050000     -1.317526   -0.57144100   -0.01833300
Se   16.14265000   21.45384000   16.27398000      0.024642    0.36214500   -0.52241800
Se   22.15642000    4.75865000    5.67730000     -0.649820    0.09802300    0.83945200
Se   22.03313000    4.27199000   15.83665000      0.090779   -0.05475300   -0.61659500
Se   21.80040000   10.07780000    6.15726000      0.460379    0.67393500    0.64239300
Se   21.82004000   10.35177000   15.82439000      0.711879   -0.04998600    0.30231100
Se   21.58560000   16.55687000    5.83638000      0.668714   -0.13190300    0.14764200
Se   21.66214000   16.30609000   16.42616000      0.675479   -0.23933300   -0.77659900
Se   21.79060000   21.47010000    6.51318000      0.568696    1.13416500    0.18422900
Se   21.80931000   21.54849000   15.70614000     -1.366288    0.41547800    0.15396400
Se    4.61007000    1.32931000    3.49609000     -0.490474    0.04836300    0.20032900
Se    4.55399000    1.46793000   13.55170000      0.021264   -1.13082600   -0.43481200
Se    4.29081000    7.15323000    3.76165000      0.215962   -1.00093300   -0.38815300
Se    4.04163000    7.05357000   13.24337000      0.514165    0.52753800   -0.13818200
Se    4.45188000   13.17871000    3.55566000     -0.870778   -0.46973100    0.82623500
Se    4.72975000   13.24783000   13.58330000     -0.009832   -1.24901900    0.07607700
Se    4.12743000   18.95072000    3.38908000     -0.074619    0.18308400    0.59938800
Se    4.29428000   18.70004000   14.19045000      0.907387    0.75923300   -1.51268000
Se   10.01265000    1.60747000    3.16635000      0.405165   -1.44178500   -0.37287600
Se   10.16789000    0.94005000   13.43455000      0.553179    0.52862600   -0.17076700
Se    9.98975000    6.93651000    3.69966000      0.068795    1.14115500    0.24580800
Se    9.75542000    7.38164000   13.05069000      0.080534   -0.23028100    0.52745600
Se    9.86515000   12.67701000    3.30816000      0.389574    0.73637000    0.27056600
Se   10.21571000   12.84109000   13.23438000      0.184050    0.76426900    0.26579500
Se    9.60109000   18.99725000    3.40367000      0.126195   -0.51925200    0.34223000
Se    9.83545000   18.93221000   13.74534000     -0.345156   -0.79452000    0.25662500
Se   16.38547000    1.74324000    4.01660000     -0.545562   -0.51772400   -0.04473800
Se   16.57651000    1.41198000   13.36226000     -0.845823    0.80510400    0.00634300
Se   15.92332000    7.31108000    3.59145000      0.589583    0.25374700    0.01795700
Se   16.51232000    7.39614000   13.53829000     -1.125735    0.08334800    0.33237700
Se   16.19960000   12.88514000    3.80323000     -0.036077    0.92852300    0.04200200
Se   15.96959000   13.45350000   13.02628000      0.031637   -0.05842200    0.52116000
Se   16.00746000   18.47102000    3.89261000     -0.219266    1.62516800    0.33337600
Se   16.23066000   18.92162000   13.46919000      1.216562   -0.63062700   -1.59777700
Se   22.07062000    1.29111000    3.80907000     -0.710589    0.18550900    0.49580100
Se   21.60634000    1.55667000   13.26429000      0.561930   -0.61267500   -0.45809600
Se   21.48715000    7.27532000    3.26612000      0.487404    0.69454400    0.77182100
Se   21.56954000    7.14230000   13.16949000     -0.469001    0.41896800    0.95785800
Se   22.20594000   13.01355000    4.02490000     -0.708545    0.15017800   -0.01585800
Se   21.82620000   13.41379000   13.52935000     -0.380086   -0.06968800    0.46334600
Se   21.76385000   18.95271000    3.53440000     -0.016055    0.51905000    0.23256800
Se   21.99332000   18.66373000   13.52561000     -0.988573    0.62664100    0.07933500
Se    1.56090000    4.11624000    3.95529000     -0.642733    0.68484100   -1.09881800
Se    1.58165000    4.31464000   13.15352000     -0.080447    0.69175400    0.11256900
Se    1.54201000   10.09021000    3.59874000     -0.377138    0.42867100    0.17756500
Se    1.15518000   10.05270000   13.37598000     -0.164982   -0.32770300   -0.48051900
Se    1.25600000   16.11370000    3.87533000      0.079895    0.02208800   -0.33039600
Se    1.78560000   15.96063000   13.09134000      0.115299   -0.63879400    0.28020100
Se    1.22457000   21.95700000    3.89439000      0.762079   -0.72708200    0.31288600
Se    1.38793000   21.66959000   13.20686000     -0.474117    1.27515700   -0.94561700
Se    7.15443000    4.30216000    3.89450000     -0.123882    0.64711900   -0.55505300
Se    7.54071000    4.20489000   13.61296000     -0.247965   -0.02479400   -0.45475800
Se    7.09821000   10.05980000    3.84850000      0.493093    0.32479500    0.08514500
Se    6.73874000   10.00970000   13.47485000      0.939389    0.42821200    0.99179700
Se    7.46928000   15.86531000    3.41683000      0.546318    0.26868800    0.76308000
Se    7.57025000   16.04788000   13.49917000      0.104737   -0.16928300    0.12461300
Se    6.99817000   21.92412000    3.82496000     -0.063926    0.10556800    0.01991800
Se    6.99373000   21.92937000   13.86615000      0.021328   -0.00953400   -0.20556300
Se   13.06248000    4.50253000    3.67431000     -0.196458   -0.22940000   -0.47852200
Se   13.06542000    3.82688000   13.56588000     -0.040827    0.92586200   -0.08894500
Se   12.98496000   10.04566000    3.33056000      0.570999   -0.23553100    0.93409800
Se   13.07827000    9.95281000   13.45685000      0.153390   -0.63612300    0.20621300
Se   12.66340000   15.54738000    3.35841000      0.399419    0.19790900    0.05655700
Se   12.78896000   16.08439000   13.40277000      1.245328    0.26055600    1.28220700
Se   13.08732000   21.52534000    3.26600000      0.014421   -0.18498400    0.34519100
Se   13.13091000   21.63260000   13.34723000     -0.073467   -0.46873300    0.24909100
Se   19.51193000    4.29541000    3.55433000     -0.649460    0.09545300   -0.11539900
Se   18.80739000    4.71022000   13.34284000      0.428539    0.08922200   -0.10314100
Se   19.07393000   10.53946000    3.87181000     -0.888704   -0.63489600   -0.19357200
Se   19.04925000   10.43882000   13.45350000      0.323559   -0.55550900    0.30561800
Se   19.17225000   15.94000000    3.69420000      0.641866    1.33040600    0.89151300
Se   19.14844000   16.44181000   12.87499000      0.450430    0.43337600    0.88807200
Se   18.83456000   21.96788000    4.11214000     -0.516644    0.12526300   -0.78572800
Se   19.14492000   21.72618000   13.09382000     -0.772121    0.36986100   -0.54086100
