384
23.23808000 23.23808000 19.51320000
Ge    5.77304000    5.55981000    9.94655000      1.060939    0.37782600   -0.85790600
Ge    5.59376000    6.16804000   19.22529000     -0.680541   -1.45966100    0.20207800
Ge    5.70046000   11.92157000    9.79758000      1.256032   -0.83598200    0.08436500
Ge    5.62142000   11.60247000   19.47447000      1.050228    0.29535900   -0.25580200
Ge    6.28949000   17.52218000    9.99109000     -0.040324    0.36547500   -0.74751600
Ge    5.53952000   17.37234000    0.01843000      0.301167    0.00647600    0.43615700
Ge    5.88493000   22.94808000   10.12640000      1.358004    0.56902800   -0.36744900
Ge    5.44086000    0.52700000   19.43067000      0.177004    0.51308400   -0.39762200
Ge   11.18141000    6.11407000   10.11148000      2.079663   -0.60614700    0.80090800
Ge   11.48603000    5.74520000    0.08699000     -0.137100    0.54691000   -0.08048400
Ge   11.50382000   12.21172000    9.99829000     -0.117661   -0.10014100   -0.16633800
Ge   11.54701000   11.61530000   19.22835000      0.735911    0.48233300   -0.01651800
Ge   11.52194000   17.54077000    9.93381000     -0.164964    0.33854000   -1.03263500
Ge   11.75649000   17.14196000    0.15102000     -0.066025    1.13762300   -1.04363900
Ge   11.45312000   23.21856000    9.70364000     -0.032734   -1.01207800    0.00791100
Ge   11.87619000   23.23529000   19.49052000      0.014740   -0.81815000   -0.66195900
Ge   17.23565000    5.47805000    9.65171000      0.112686    0.39948800   -0.70670700
Ge   17.85406000    5.57366000    0.02292000     -1.933245    0.50532100    0.09518000
Ge   17.53049000   11.66868000    9.82715000     -0.284358   -1.13685300    0.09501700
Ge   17.11678000   11.35768000   19.36400000      1.127239   -0.66219500    0.82095700
Ge   17.43410000   17.39472000    9.31883000     -0.262223   -0.37087100    0.84764700
Ge   17.80775000   17.20714000    0.23421000      0.333003   -0.55509500    1.26726600
Ge   17.51022000    0.09865000    9.60380000      0.096807   -0.51938800    0.88302100
Ge   18.11934000   23.18805000   19.42176000     -0.172867   -1.03889700    0.59947300
Ge   22.99665000    5.58610000    9.67733000      0.034043    0.08125600    0.04755300
Ge   22.99567000    6.03703000   19.46132000      0.843720   -0.54481700    0.78138100
Ge    0.40386000   11.57986000    9.81859000     -0.258038    0.79529600   -0.09360000
Ge   22.84371000   11.48394000   19.38930000      1.053662   -0.32253600   -0.42816000
Ge    0.72071000   17.45238000    9.43581000     -1.768931    0.01522500    0.09685800
Ge    0.06287000   17.35267000    0.07102000     -0.481875    0.72181700   -0.13085300
Ge    0.14903000   22.86108000    9.63784000     -2.008855    0.47465000    0.76378200
Ge    0.03287000    0.02087000    0.27385000      0.759844   -0.66083700    0.70381900
Ge    2.84552000    5.83181000    7.49324000     -0.264938   -1.03261700   -0.59514200
Ge    2.51359000    5.93792000   16.93699000     -1.253958    0.64618300   -0.31931400
Ge    3.05245000   11.61917000    7.24480000      0.421263   -0.58686300   -0.97273700
Ge    2.65771000   11.78765000   16.80937000      0.111654    0.03894100   -0.25696400
Ge    3.53453000   17.61960000    7.09639000      0.803363   -1.22130600    0.91234000
Ge    2.79996000   17.18156000   17.06124000      1.104833    1.15949400   -0.81076200
Ge    3.23520000    0.09019000    7.64702000     -0.098675   -1.27350700   -1.26161500
Ge    2.63445000    0.18155000   17.09688000     -0.418515   -0.73305100   -1.11163000
Ge    8.60619000    6.11567000    7.49297000      0.788674    0.13211800    0.32201100
Ge    8.65722000    5.91751000   17.00870000      0.055214   -0.53283900   -0.75006400
Ge    8.89427000   11.85303000    7.28643000      0.124680    0.77844200   -0.54983200
Ge    8.30340000   11.72304000   17.10397000     -0.544177    0.73349200   -0.69669400
Ge    8.67919000   17.25059000    7.18045000      0.225748    1.14892400   -0.62051500
Ge    8.48892000   17.23721000   17.48262000      0.927412   -0.04079100    0.65140300
Ge    8.46191000   23.23800000    7.17285000     -0.447130   -0.92091600   -0.06675300
Ge    8.83299000    0.25138000   17.47037000      0.224663   -0.47400400   -0.60868200
Ge   14.22430000    5.86013000    7.12216000      0.418290   -0.24865800    0.51091700
Ge   14.79612000    5.77474000   17.17067000     -0.731218   -0.97398700   -0.81205600
Ge   14.52202000   11.73976000    7.68075000      0.174950    0.80170600   -0.82837200
Ge   14.50622000   11.40189000   16.82465000     -0.143051    0.45796300   -0.43739700
Ge   14.44835000   17.29508000    7.38348000     -1.162473   -0.04899500    0.11252600
Ge   14.90458000   17.46230000   17.54105000     -0.415222    1.07638200   -1.22952000
Ge   14.82637000   23.12099000    7.27755000     -1.613764    0.00882700   -0.54536600
Ge   14.90409000   23.15511000   16.97200000     -0.706024    0.88608300    0.98042600
Ge   19.98943000    5.90846000    7.26612000      0.379908   -0.99789900    0.34213000
Ge   20.28198000    5.99998000   16.96485000     -1.183002    1.54664800    0.02086000
Ge   20.56260000   11.26511000    7.59018000      0.542450    1.51889700   -1.25955600
Ge   19.91089000   11.77382000   16.86422000      0.935001   -1.21794000    0.98836900
Ge   20.69538000   17.46227000    7.15648000     -0.708091   -0.02790000    0.75191400
Ge   20.24954000   17.63723000   17.27689000     -0.260066   -0.97491400   -0.95897700
Ge   20.25639000   23.00894000    7.28311000      0.809303    1.14837200    0.05614400
Ge   20.61503000   22.95156000   17.21691000      0.431764    0.37959800   -0.34996400
Ge    2.98502000    2.83544000    4.96949000      0.734018    0.43468300   -0.39900400
Ge    2.84012000    2.86105000   14.66903000     -1.225243    0.24170100   -0.13616400
Ge    2.93978000    8.85646000    4.84577000      1.482137   -0.99287200    0.55223400
Ge    2.84618000    8.79881000   14.50125000     -0.378761   -0.44084400   -0.51120600
Ge    3.16001000   14.53814000    4.77298000     -0.432538   -0.45109100    0.99403200
Ge    2.74236000   14.73791000   14.37650000      0.514479    0.84614300    0.82083000
Ge    3.02294000   20.49487000    4.97509000      0.540452    0.99294900    0.88264400
Ge    3.27485000   20.19276000   14.75290000     -0.311721   -0.89716400    0.04136200
Ge    8.62959000    3.06129000    5.01302000      0.493993    0.54411400    0.04373900
Ge    8.78276000    3.09973000   14.67652000      2.849427    0.26316000   -0.07481200
Ge    8.59917000    9.03457000    4.91341000      0.936769   -0.12787800   -0.36023500
Ge    8.46870000    8.83656000   14.53553000     -0.080351   -0.22670500    1.26321100
Ge    9.07919000   14.59343000    4.65622000     -0.431398   -1.65232200    0.07929800
Ge    8.56902000   14.67200000   14.80823000     -0.061818   -0.73815600   -0.68767000
Ge    8.55465000   20.11055000    4.54356000      0.053988    0.66695700    0.59584100
Ge    8.95669000   20.21969000   15.37032000     -0.616580    0.56265300    0.17120700
Ge   14.58870000    2.80705000    4.74205000     -0.326975   -0.66996200    0.34743700
Ge   14.61173000    2.76951000   14.41454000      0.103872    0.77881300    1.17947400
Ge   14.16251000    8.98853000    5.08441000      0.365018   -0.87574000   -0.28149100
Ge   14.45865000    8.45929000   14.37788000      0.539774    0.84276400    1.23954700
Ge   14.60485000   14.46683000    4.88791000     -1.844576   -1.19482300   -0.07491400
Ge   14.85449000   14.62097000   14.78935000     -0.921613   -0.01385600    0.08432600
Ge   14.34980000   20.12589000    4.80387000     -0.917439   -0.77423800   -0.39256000
Ge   14.46581000   20.35314000   14.58984000      0.882293   -1.50079900    0.06662900
Ge   20.26767000    3.04649000    4.90599000     -0.997177   -0.06597400   -0.25594300
Ge   20.21854000    2.90077000   14.90961000     -0.178797   -1.88975800   -0.80303700
Ge   20.22635000    8.64603000    4.81105000      0.325747    1.03626800    0.21815400
Ge   20.22554000    8.63067000   14.36330000     -0.512529    0.19448900    0.93892100
Ge   20.27380000   14.10486000    4.84028000     -0.295124    0.92686000    0.50108400
Ge   19.96743000   14.79568000   14.63414000      0.432957   -0.42509000    0.58735000
Ge   20.45022000   20.42074000    4.90585000      0.078915    0.94572800   -0.88614000
Ge   20.47196000   20.19881000   14.52337000     -0.988021   -0.95028900    0.05435800
Ge    5.83895000    3.19315000    2.28609000     -1.168484    0.06348400    0.19581500
Ge    5.57977000    2.60188000   12.39317000      1.199012   -0.93367200    0.17487000
Ge    5.48536000    9.19165000    2.46991000      0.615857   -1.19633500   -0.23289400
Ge    5.67148000    8.57917000   12.20167000     -0.257066   -0.60230100   -0.42404100
Ge    6.06758000   14.60939000    2.70000000     -0.894357    0.54475200   -2.21827200
Ge    5.81823000   14.79498000   12.17995000      1.182906   -0.42467600    0.67432400
Ge    5.81945000   20.49468000    2.27530000     -1.418193   -0.17546400   -0.67920600
Ge    6.24525000   20.10714000   12.63074000     -0.923427    0.38075000    0.16257200
Ge   11.58340000    2.73363000    2.53993000      0.319521   -0.01919800   -1.54968700
Ge   11.42710000    2.69081000   12.11529000      1.015901   -0.51602300    0.68228800
Ge   11.36360000    8.90642000    2.39610000      1.867598    0.52827400   -0.43917400
Ge   11.34134000    9.23977000   12.39529000      0.840297   -0.98391600   -0.61863300
Ge   11.76010000   14.31668000    2.39851000     -0.384236   -1.40473200   -0.23014500
Ge   11.86049000   14.80199000   12.48697000     -0.429302   -0.60811600    0.25111400
Ge   11.49452000   20.15367000    2.04928000      0.307263   -0.16822100    0.09469200
Ge   11.34557000   20.45721000   12.40691000      0.379414    0.29859400    0.96916200
Ge   17.24263000    2.67180000    2.44983000      1.054616    0.87824900   -0.66510700
Ge   17.47434000    2.80631000   12.13608000     -0.902527   -1.10361800    0.16054000
Ge   17.18982000    8.56615000    2.43666000      1.066722   -0.13047800    0.55121500
Ge   17.26589000    8.30777000   11.93373000     -0.382483    1.37454400   -0.16802100
Ge   17.25679000   14.40398000    2.39458000      0.523380    0.09544900    0.46603800
Ge   17.42341000   14.63704000   11.93703000      0.490948    0.52834800    0.11410100
Ge   17.58297000   20.17504000    2.47152000      0.103651   -0.15136800    0.24978100
Ge   17.28213000   20.26897000   11.97424000     -0.190971    0.84927400    0.27577400
Ge    0.03698000    2.90461000    2.47866000     -0.920516   -0.32091900   -0.61565600
Ge   23.06193000    2.65438000   12.17195000      0.299760   -0.38579800   -0.39783900
Ge   23.06088000    8.65257000    2.41263000      0.016972    0.30247800   -0.78522900
Ge    0.15298000    8.81805000   12.23678000     -0.487030   -1.05838600   -0.75641400
Ge    0.08449000   14.28879000    2.49157000     -1.003233   -0.71609100   -0.27359000
Ge   23.02834000   14.60268000   12.15833000     -0.395091    0.58047900    0.28098500
Ge    0.35388000   20.24468000    2.74107000      0.173593    1.41064400   -0.31860500
Ge   23.21440000   20.13356000   12.16781000     -0.242899   -0.23351100    0.30346700
Se    1.62071000    1.52663000    1.30798000     -0.579326   -0.15487200   -0.04449400
Se    1.33337000    1.15604000   10.90488000      0.363807    1.00757500    0.75977100
Se    1.39595000    7.35347000    1.22079000     -0.653009   -0.52554200   -0.50032300
Se    1.31026000    6.95237000   10.93379000     -0.040865    0.36667400    0.13249200
Se    1.23338000   12.86679000    1.01750000      0.432459   -0.33511200    0.01687300
Se    1.41077000   13.20506000   11.30275000      0.846722   -0.50015900   -0.63203300
Se    1.61727000   18.71079000    1.39226000      0.087586   -0.00371700   -0.17308600
Se    1.61915000   19.24891000   10.67453000      0.768077   -0.43340400    0.32318900
Se    7.16088000    1.83460000    0.90121000      0.200126   -0.06082000    0.09068400
Se    7.32189000    1.19184000   11.54729000     -0.404628   -0.38596800   -0.75089200
Se    6.81559000    7.85362000    0.77540000      0.478884    0.16581400    0.64112500
Se    7.09785000    6.97782000   11.18498000      0.903395    0.65499500    0.37471000
Se    7.07704000   13.22034000    1.04715000      0.538999   -0.65332500   -0.18586900
Se    7.29540000   13.25243000   10.91444000     -0.137737    0.44085800    0.56237600
Se    7.16946000   18.86628000    1.15606000     -0.588842    0.07349100   -0.13834600
Se    7.69764000   18.74843000   11.54102000      1.003884   -0.70240100   -1.44024700
Se   13.14975000    1.27565000    1.35433000      0.431606    0.65047800    0.92436900
Se   12.96164000    1.30876000   10.88755000     -0.330353    0.47358300    0.16164600
Se   12.84305000    7.08311000    1.60910000     -0.302751    0.35317400   -0.42262900
Se   12.87294000    7.75684000   11.03496000     -1.441337   -0.30720400    0.23985400
Se   13.12825000   12.68200000    1.29643000     -0.403384    0.19642500   -0.66528100
Se   13.22797000   13.21216000   11.29955000     -0.406794    0.18683400   -0.04810900
Se   13.14423000   18.97800000    0.60078000     -0.293969    0.34422100    1.30471800
Se   12.84345000   19.18395000   11.09619000      0.350366   -0.26969400   -0.24191800
Se   19.16595000    1.64942000    1.28153000     -0.303389   -0.06130900   -0.01687000
Se   19.03174000    1.44120000   10.92432000     -0.319908    0.02679800   -0.06302700
Se   18.88306000    7.13830000    1.43300000      0.369737    0.23976100    0.15414800
Se   18.77533000    7.20266000   10.46860000     -0.453549   -0.57003200    0.35498300
Se   18.62307000   13.09172000    0.92529000     -0.390528   -0.66978700    0.11498700
Se   18.98143000   13.20602000   10.84797000      0.302254    0.05420800    0.27482300
Se   19.14905000   18.58986000    1.60719000      0.260802    0.39233500    0.26040800
Se   18.66272000   19.08457000   10.50733000      0.936790   -0.55124500    0.07041800
Se    4.13226000    4.53137000    1.00146000      1.247294    0.19742900    0.19558700
Se    4.44670000    4.08148000   11.00294000     -2.030705   -0.79645000    0.55321000
Se    4.07865000   10.73731000    1.44834000     -0.845833   -0.59689600    0.09620600
Se    4.54184000   10.11053000   10.77809000     -0.886707    0.04495100   -0.22463800
Se    4.30757000   15.85110000    1.43669000      0.141232    0.16271300    0.32827300
Se    4.59225000   16.07966000   10.70888000     -0.816959    0.20434600    0.19901100
Se    4.23654000   22.21735000    1.14714000     -0.266471   -0.99424000    0.58774900
Se    4.65681000   21.52610000   11.51820000     -0.655066   -0.24779600   -0.11838900
Se   10.10096000    4.20237000    1.43960000     -0.332910    0.55328100   -0.60308900
Se    9.97189000    4.36354000   11.44587000     -0.382833    0.75669600   -0.62496200
Se   10.09387000   10.18010000    0.83902000     -0.492479   -0.39964900    0.48466400
Se    9.95362000   10.75352000   11.18308000     -0.129366   -0.00262300   -0.15868800
Se   10.28264000   15.61752000    1.01149000     -0.224261   -0.49808900    0.61548500
Se   10.24035000   16.24015000   11.48217000     -0.161296   -0.06120500   -0.38622100
Se   10.23333000   21.69471000    0.70283000     -0.328128   -0.02950900    0.60998000
Se    9.87180000   21.78386000   11.06907000      0.422797    0.36750000   -0.25571600
Se   16.06552000    4.19599000    0.90583000      0.098475   -0.23374000    0.44398800
Se   15.78711000    4.20536000   11.04803000      0.466061   -0.27284100    0.08620900
Se   15.75246000    9.63232000    1.00246000     -0.230040    1.39101200   -0.61393600
Se   15.80013000   10.32955000   11.04819000      1.282447   -0.34631200   -0.20830900
Se   16.02052000   16.09930000    1.25852000     -0.362689   -0.61086600    0.35240800
Se   15.90704000   15.96271000   10.72414000      0.419495    0.53975900   -0.56874600
Se   16.53615000   21.68325000    1.04430000     -0.804315    0.70196500   -0.59215700
Se   15.86987000   21.92179000   10.77237000      0.731915   -0.00216300    0.14005900
Se   21.67723000    4.36228000    1.05724000      0.563500   -0.38988200    0.62660700
Se   21.58032000    4.14195000   11.04838000     -0.024600    0.22671400   -0.41395600
Se   21.49044000    9.96249000    1.08388000      0.199958   -0.02437600    0.31739900
Se   22.07637000   10.25922000   10.89798000     -0.816348   -0.51444900    0.22624600
Se   21.93118000   15.78331000    1.29227000     -0.414690    0.22217000    0.01104500
Se   22.13968000   16.28663000   10.71008000     -0.150011    0.29132700   -0.57463100
Se   22.04441000   21.88473000    1.83238000      0.092103    0.00986200   -0.65786500
Se   21.75164000   21.63677000   11.03862000      0.454950    0.10996000   -0.23684700
Se    1.10456000    4.29927000    8.03806000     -0.073802    0.13824800    0.85617200
Se    1.00113000    4.59956000   18.07549000      0.115898   -1.20801700   -0.01898800
Se    1.74177000   10.18020000    8.49619000     -0.536210   -0.98691800    0.49977800
Se    1.38429000   10.28510000   18.07921000     -0.865001   -0.46678800    0.45573800
Se    2.10781000   15.94235000    8.32693000      0.403328    0.06786600   -0.35160900
Se    1.66202000   15.84780000   18.58703000     -0.534746   -0.22856700    0.11291600
Se    1.89213000   21.64601000    8.79985000      1.060477   -0.48430500   -0.64830600
Se    1.26506000   21.87943000   18.26978000     -0.020771   -0.32960000    0.38151500
Se    7.56667000    4.45628000    8.78234000     -0.685190   -0.38964000   -0.05029400
Se    6.97503000    4.56661000   18.03040000     -0.081090    0.08697200    0.36798400
Se    7.21187000   10.58707000    8.38011000     -0.156558   -0.32667500    0.27056500
Se    7.30056000   10.04772000   18.49024000     -0.870590    0.70568700    0.04247100
Se    7.53642000   15.90290000    8.68161000     -0.271865   -0.31518500    0.31816100
Se    7.13535000   15.76961000   18.68412000     -0.475321   -0.08278600   -0.08015300
Se    7.07913000   21.62460000    8.44794000      0.510156    0.41258600    0.38526000
Se    6.93141000   22.19875000   18.50083000      1.015000   -0.06357900   -0.63731700
Se   12.63904000    4.78504000    8.67688000      0.179858   -0.88636600   -0.02525700
Se   12.92650000    4.41833000   18.29224000      0.819700   -0.26333000   -0.28133400
Se   12.92136000   10.59180000    8.95452000     -0.222153   -0.68912500    0.07911500
Se   13.27023000   10.08968000   18.33636000     -0.923892   -0.23720400   -0.01932600
Se   13.00278000   15.90493000    8.90954000      0.283178    0.68546400   -0.27389700
Se   13.19053000   16.05491000   18.13404000     -0.499659   -1.37264600    0.09972000
Se   13.37708000   21.94614000    8.82715000     -0.281616   -0.55211100   -0.19731500
Se   13.41778000   21.80895000   18.31872000      0.026582   -0.11646800   -0.07374600
Se   18.64560000    4.07412000    8.29046000      0.390233    0.75274200   -0.04166700
Se   19.24265000    4.28327000   18.18906000     -0.167484   -0.22907300    0.19676700
Se   19.15053000   10.02181000    8.90379000     -0.809868   -0.26238700    0.57702300
Se   18.83346000   10.01235000   18.27309000     -0.119560    1.01927800   -0.27990000
Se   19.07208000   15.99061000    8.29364000     -0.009032    0.29437300    0.04352700
Se   19.51497000   15.98401000   18.84975000     -0.049480   -0.67242600   -0.80525900
Se   18.94369000   21.71620000    8.58994000     -0.679827   -1.18283700    0.53101600
Se   19.58562000   21.32617000   18.55673000     -0.693375    0.94430700    0.34349600
Se    4.80863000    1.37526000    8.73642000     -0.007263    0.60329000    0.65804200
Se    4.00316000    1.86291000   17.92246000      0.608860    0.22638300    0.74638800
Se    4.21900000    6.98661000    8.90789000      0.531839    0.97777800    0.45896900
Se    3.80082000    7.36049000   18.19582000      0.616100    1.10185500    0.35415400
Se    4.14737000   13.13475000    8.62998000     -0.308168    1.54907500   -0.13425500
Se    4.04352000   13.00575000   18.35618000      0.291493    0.60653200   -0.46031000
Se    4.84571000   18.97842000    8.65020000      0.159173   -0.08344800   -0.00654800
Se    4.35797000   18.86425000   18.11998000     -0.605871   -0.55510600   -0.00203800
Se   10.05407000    1.29151000    8.31024000      0.196796    0.75343700    0.14773700
Se   10.70287000    1.60268000   18.25307000     -0.836402    0.26516200   -0.19325100
Se    9.93048000    7.54800000    8.94289000     -1.065088    1.23458300   -0.96090800
Se   10.24983000    7.27311000   17.96401000      0.646889    0.42363300    1.54276800
Se   10.22908000   13.60133000    8.46249000     -0.216643   -0.73601800    0.05460800
Se   10.06600000   13.16904000   17.93523000      0.670834   -0.43596600    0.44355000
Se   10.23905000   18.84142000    8.05446000      0.095817   -0.40454400    1.11427500
Se    9.99079000   18.60814000   18.75271000      0.208216   -0.34768900   -0.30179100
Se   16.39282000    1.39701000    8.02626000      0.048910    0.93743700    0.28757700
Se   16.49991000    1.25304000   18.26062000     -0.386739    0.08962100   -0.29665700
Se   15.94149000    7.08815000    8.35369000     -0.136602   -0.09328300    0.13867500
Se   16.08898000    7.17038000   18.46037000      1.078973   -0.48342300    0.48658200
Se   16.55205000   13.02143000    8.16911000     -0.879690    0.06073800    0.16518000
Se   15.79783000   12.82691000   18.22358000     -0.177158    0.93867300   -0.55073100
Se   15.91965000   18.91933000    8.31985000     -0.238555   -0.25072600   -0.16259600
Se   16.44384000   18.73719000   18.82988000     -1.048148    1.78856600   -1.30954700
Se   21.89290000    1.08290000    8.45565000      0.172042    0.40953100    0.20255900
Se   21.87783000    1.38781000   18.58460000     -1.147048    0.41283000   -1.06073200
Se   21.57097000    7.17433000    8.57186000     -0.030174   -0.16118700    0.20414500
Se   21.77192000    7.48465000   18.16303000     -0.897472    0.77237500   -0.65211300
Se   22.13574000   12.94987000    8.55242000     -0.593378   -0.23962200   -0.36953600
Se   21.73126000   13.01630000   18.03937000     -0.683576    0.30738700   -0.38233600
Se   22.30196000   18.90671000    8.11164000      0.222201   -0.68865000    0.57309800
Se   21.91324000   19.00587000   18.03592000      1.396684   -0.06790100    1.08896600
Se    1.65275000    1.31051000    6.25624000      0.097215    0.09404700    0.08312300
Se    1.18761000    1.25428000   15.40347000      0.723083   -0.17791500    1.13874600
Se    1.68842000    7.52049000    6.39466000     -1.266832    0.46828600   -0.68478800
Se    1.20426000    7.33045000   15.40053000     -0.124808    0.13301700    0.62164300
Se    1.60772000   12.77184000    5.74198000      0.951290    0.65609800    0.16038300
Se    1.21246000   13.29058000   15.45136000      0.209628   -0.66854000    0.53573900
Se    1.84813000   19.00515000    6.50769000     -0.754321    0.71130100   -1.03166500
Se    1.50484000   18.64276000   15.53361000      0.614854    0.03069700    0.46112000
Se    7.01572000    1.51561000    5.92016000      0.454141   -0.17157200    0.22958800
Se    7.60806000    1.68197000   15.93321000     -1.641511   -1.56567000    1.68518300
Se    7.29984000    7.51075000    6.15934000     -1.208382   -0.07262700    0.02654800
Se    7.10953000    7.50816000   16.05074000      0.282231   -0.33433300   -0.63524900
Se    7.39470000   13.26764000    5.72794000      0.925809   -0.52862400    1.09003500
Se    6.88461000   13.16105000   15.50524000      0.498160   -0.68284400    0.94452500
Se    7.13254000   18.61009000    5.77557000      0.141441    0.06245500    0.34231000
Se    7.26161000   18.68053000   16.21165000     -0.159105    1.05538500   -0.46450300
Se   13.25686000    1.46974000    6.33095000      0.147864    0.01963700   -0.49982300
Se   13.36358000    1.55091000   16.09612000      0.092868   -0.05750200   -0.21007800
Se   12.65103000    7.39676000    6.21924000      0.473151    0.34734700   -0.45420100
Se   13.27167000    7.40526000   16.13380000     -0.051082   -0.61845800   -0.28990600
Se   13.04538000   13.12368000    6.33547000      0.792144    0.30735600   -0.33863300
Se   13.09395000   13.26995000   15.86406000      0.923782   -0.37451000   -0.11159600
Se   12.88468000   18.56366000    6.06342000      0.524353    0.56478400   -0.24154600
Se   13.41278000   18.87070000   16.04023000     -0.343866   -0.56749800    0.88279800
Se   18.99110000    1.35434000    6.13283000     -0.497168    0.84539800   -0.56960900
Se   18.92962000    0.96539000   15.97453000      0.801963    0.67635800   -0.14472100
Se   18.72404000    7.67409000    6.34722000     -0.744551   -0.38080600   -0.38651300
Se   18.59482000    7.37097000   15.63186000      1.092814   -0.60759700    0.50073900
Se   18.90254000   12.81552000    6.18341000      0.698630   -0.90260500    0.77881800
Se   18.48043000   13.29901000   15.92006000     -0.588452    0.57099100   -0.55336600
Se   19.18275000   19.05356000    6.31367000     -0.928754    0.04714700   -0.18426300
Se   18.76519000   18.83922000   15.83671000      0.687616    0.17366900   -0.06033400
Se    4.34449000    4.55283000    6.19046000     -0.065562   -0.78066700   -0.51131800
Se    3.92065000    4.85573000   15.53133000      1.499011   -1.41808400   -0.56934900
Se    4.63284000    9.96501000    6.29760000     -0.893541    0.65642600   -0.43232300
Se    4.24739000   10.16664000   15.80251000      0.053896    0.61533400    0.31862200
Se    4.78409000   16.20525000    5.57345000     -0.468223   -0.09585500    0.39323200
Se    4.41910000   15.70545000   15.96793000     -1.241231    0.30032200   -0.23399200
Se    4.75597000   21.70948000    6.24520000     -1.310264    0.44931100    0.24509700
Se    4.30403000   21.66953000   16.39834000     -0.268003    0.08352900   -0.56671900
Se   10.11084000    4.60559000    6.45116000     -0.198073   -0.84719000   -0.76472500
Se   10.38558000    4.57055000   15.80673000     -1.602956    0.08797800   -0.23083200
Se   10.41779000   10.14905000    6.17412000     -1.249202    0.48431600    0.09619400
Se    9.75647000   10.36701000   15.85115000      0.805312   -0.34663200   -0.51469300
Se   10.24299000   16.25280000    5.69287000      1.118830    0.36259700    0.79246500
Se    9.95089000   15.72499000   16.36131000      0.615977    0.51627200   -0.18619400
Se    9.89524000   21.74289000    5.90195000     -0.014671   -0.33745200   -0.18707000
Se   10.39889000   21.87462000   16.37962000     -1.007154   -0.06286600    0.15260500
Se   15.88691000    4.41864000    5.87685000     -0.470706    0.69760200    0.44729300
Se   16.24294000    4.29860000   15.70094000     -1.352186    0.14449800    0.17454300
Se   15.78919000   10.13470000    6.41807000     -0.120631   -0.16746400   -0.12779700
Se   16.06039000   10.09783000   15.53591000     -0.468824   -0.09236300   -0.26370400
Se   15.88333000   15.93382000    6.05816000      1.375651    0.60228300    0.39827500
Se   16.13398000   16.32854000   15.88949000      1.116153   -0.62073000   -0.16670400
Se   15.88244000   21.53527000    5.83588000      0.633126    0.53339900    0.41130600
Se   16.05115000   21.58101000   15.75863000      1.661284    0.02369500   -0.09412000
Se   21.61181000    4.58144000    6.01909000     -0.023549    0.47943700    0.24384700
Se   21.61353000    4.46330000   15.92328000      1.545147   -0.63762600   -0.73369900
Se   21.95907000    9.86641000    6.13585000     -0.773535    0.21332900   -0.14349200
Se   21.38926000   10.30952000   15.62718000      0.335597    0.01702300   -0.10809900
Se   21.64485000   15.92463000    5.76299000      1.251016   -0.78689600   -0.55693200
Se   21.50639000   15.82821000   16.12170000      0.057692    0.51568300   -0.15800100
Se   21.87335000   22.07911000    5.96457000      0.496231   -1.11856000   -0.57454200
Se   21.98512000   21.45942000   15.79484000      0.543897    0.47367700    0.17004300
Se    4.67886000    1.52949000    3.71731000     -0.473847    0.62903600   -0.03928800
Se    4.23023000    1.19968000   13.73379000      0.058117    0.08006100   -0.34667600
Se    4.74040000    7.36646000    3.70183000     -1.317199    0.25721300    0.54438800
Se    3.93072000    7.16654000   13.01095000      0.083759    0.82926800    0.51791100
Se    4.82010000   13.14219000    3.87735000     -0.860846   -1.25130600    0.61901500
Se    4.27906000   13.36472000   13.28569000      0.460275   -0.93317300   -0.47341700
Se    3.96198000   19.14351000    3.32316000      0.803502   -0.15414000   -0.50004400
Se    4.97273000   18.55301000   13.80450000     -1.381044    0.40774900    0.46539100
Se   10.33796000    1.58750000    4.02019000     -1.170604   -1.06121300    1.02982400
Se   10.41534000    1.47052000   13.89382000     -0.365297   -0.13675300   -0.65955000
Se    9.84238000    7.55430000    3.40546000     -0.868391   -0.49077500    1.06753400
Se    9.98996000    7.47890000   13.37683000      0.309942    0.13321700   -0.19573400
Se   10.45408000   12.84020000    3.80149000      0.001022    0.61046100   -0.23216300
Se   10.06073000   13.29140000   13.43421000      0.374785    0.83489300    0.20328500
Se    9.83806000   18.63721000    3.13565000      0.671963    0.64307200   -0.11745500
Se   10.35430000   18.92745000   14.07108000      0.744994   -0.61676900   -1.02859700
Se   16.19317000    1.16187000    3.88936000     -0.703412    0.02294300   -0.08576200
Se   15.96557000    1.18486000   13.42720000      0.941431    0.17001400   -0.95217500
Se   15.61947000    7.40577000    3.70545000     -0.381328   -0.48369500    0.72291800
Se   15.75860000    6.91239000   13.18520000      0.286187   -0.26485200   -0.27639800
Se   15.78211000   12.88215000    3.57850000      0.358933    0.07657800   -0.06498600
Se   16.10272000   13.23046000   13.29092000     -0.031470   -0.60243000    0.33875200
Se   15.79832000   18.84080000    3.38956000      0.065898   -0.26816500    0.22576100
Se   15.66433000   18.90383000   13.02694000      0.040503   -0.10201700    0.20425200
Se   21.74286000    1.56098000    3.83467000      0.697896    0.01327800   -0.56567700
Se   21.74853000    1.33141000   13.62299000     -0.983894    0.17806000    0.27559800
Se   21.64222000    7.22239000    3.51037000     -0.348828   -0.95313500    0.62942100
Se   21.69737000    7.30190000   13.17986000      0.847921   -0.39182300   -0.17019100
Se   21.50335000   12.84619000    3.35749000      1.033847   -0.33680700   -0.42017400
Se   21.46498000   13.33302000   13.49836000      0.437301   -0.48821200   -0.30811300
Se   21.91465000   18.94261000    3.60682000     -0.952296   -0.78721600    0.82860200
Se   21.61162000   18.51049000   13.19676000      0.447013    0.76340500    0.02897300
Se    1.68898000    4.21245000    3.42012000      0.540696    0.96705300    0.96708600
Se    1.12251000    4.11708000   13.44732000      0.924209    0.46934600   -0.08929000
Se    1.58393000    9.98340000    3.24133000      0.205421    1.08124000    0.75866400
Se    1.54573000   10.40807000   13.23613000      0.243669   -0.36784200    0.37465000
Se    1.29071000   15.65244000    3.89492000      0.336831    1.18214100    0.04345700
Se    1.32671000   16.20045000   13.12597000      0.135019   -0.15963400    0.27855700
Se    1.32772000   21.97331000    4.19167000      0.213616   -0.64856700   -0.53598900
Se    1.86333000   21.42398000   13.18679000     -0.438842    0.11251800    0.14050700
Se    7.26558000    4.52587000    3.61480000      0.327624    0.44082200    0.27844500
Se    6.93428000    4.02878000   13.69794000     -0.572683    1.71513600   -0.30657200
Se    7.10335000   10.43609000    3.64899000      0.546264    0.76160300    0.06940100
Se    6.84889000   10.11310000   13.47110000      0.119637    0.93340600   -0.07319200
Se    7.82248000   15.94463000    3.21700000      0.129722    1.08108800   -0.08261100
Se    7.26829000   16.26546000   13.61779000     -0.292817   -0.39251800   -0.52609900
Se    6.96221000   21.82043000    3.75437000      0.994600   -0.01473700    0.19530800
Se    7.48319000   21.51847000   13.93307000      0.680040    1.23682200    0.58708400
Se   13.15949000    4.14550000    3.34587000      1.363173    1.13731500    0.98039400
Se   13.05158000    4.08970000   13.17027000      0.533996    0.68263000    0.36339800
Se   13.17420000   10.38457000    3.46025000     -0.954778   -0.00905900   -0.11756500
Se   13.09174000   10.24782000   13.69414000     -0.344043    0.38581100   -0.21880900
Se   13.07623000   15.83074000    3.50792000      0.641445    0.82343000    0.60596000
Se   13.52665000   16.15464000   13.49125000     -0.357806    0.24197300    0.25013100
Se   12.77420000   21.50198000    3.58709000     -0.070593    0.22898500    0.03132900
Se   13.01000000   21.85418000   13.83543000     -1.822681    1.08665700   -1.48713000
Se   18.51443000    4.39116000    3.73995000      0.387198   -0.97495100    0.09547000
Se   18.67774000    4.18462000   13.60955000      0.200068    0.61924600    0.08238400
Se   18.73381000   10.12047000    3.52873000      0.073413   -0.18757300    0.23076300
Se   18.82319000    9.83896000   12.96894000     -0.800335    0.68005000   -0.34065500
Se   18.79320000   15.69659000    3.89003000     -0.746195   -0.25336400   -0.76025400
Se   18.92283000   16.20062000   13.09597000     -0.566133    0.30234200   -0.18632600
Se   18.64779000   21.88681000    3.66368000      1.274735   -0.84950700    0.83950300
Se   18.73357000   21.50901000   13.54382000     -0.123447    0.36033700   -0.59272200
