384
23.23808000 23.23808000 19.51320000
Ge    5.90750000    5.75025000    9.62601000      0.895946   -0.96426200    1.17347100
Ge    5.63132000    5.72292000    0.00272000     -0.308120    0.32375200    0.05597300
Ge    6.00286000   11.78155000   10.00361000     -0.226481   -0.30034000    0.14096700
Ge    5.82209000   11.60084000    0.00310000     -0.489285   -0.93206600   -0.61029500
Ge    5.80508000   17.44397000    9.95455000     -0.230742   -0.06785500   -0.29738300
Ge    5.66393000   17.44738000   19.41725000     -0.617585   -0.76214600    0.50117900
Ge    5.88133000   22.94749000    9.83860000      0.429878    1.82945700   -0.18698900
Ge    5.77265000   23.21514000   19.22130000     -0.767236    0.94693300    0.92477700
Ge   11.50436000    5.28420000    9.84058000      0.258414    0.31414100   -0.04023100
Ge   11.68629000    5.73080000   19.23329000     -0.551782    1.67849600    0.80091900
Ge   11.62233000   11.66481000    9.67337000     -0.464486    1.35745500    1.59045700
Ge   11.51878000   10.95004000   19.40858000     -0.762547    0.49012600    0.69036700
Ge   11.62742000   17.30696000    9.87828000     -0.204167    0.19721200   -0.06301000
Ge   11.47558000   17.28086000    0.05407000      0.468514   -1.44339000    0.21586300
Ge   11.88031000   23.10662000    9.73808000     -1.520944   -0.20073300    0.26858400
Ge   11.78552000    0.07338000    0.10664000     -1.379755   -0.33506500   -0.26057200
Ge   17.63912000    6.27031000    9.62952000     -1.015344   -0.04305900    0.30538800
Ge   17.73580000    6.01955000    0.11977000     -0.137043   -0.09611900   -1.65500500
Ge   17.08316000   11.94646000    9.79870000      0.219040   -0.46766500   -0.65830000
Ge   17.39556000   11.98533000    0.18838000      0.039370   -1.31046600   -0.68411000
Ge   17.06734000   17.60643000    9.46226000      0.213937    0.17902800   -0.61838000
Ge   17.33484000   17.49705000    0.22086000      0.438334   -1.31100600    1.34452900
Ge   17.04909000    0.16509000    9.61299000     -0.064986    0.33626000    0.34582500
Ge   17.41740000    0.25057000    0.33478000      0.107768   -0.54768700   -0.51127900
Ge    0.05297000    5.59339000    9.80193000     -0.633264    0.11550100   -0.47842900
Ge   23.15810000    5.85475000   19.27567000      0.141704   -0.88434000    0.74681700
Ge    0.34760000   11.47345000    9.54430000     -0.816146    0.36866200    0.10986600
Ge   22.98064000   11.93980000    0.11976000      0.007440   -1.24205700   -0.16265600
Ge    0.15251000   17.52391000    9.46677000      0.300064    0.34584900    0.24641500
Ge   22.88330000   17.63474000    0.14940000      0.879718   -0.38726500    0.14058900
Ge    0.03788000   23.01351000    9.64344000     -0.570472   -1.25717000   -0.14995200
Ge   22.89701000    0.14812000    0.02604000     -0.318502    0.49998200    0.09124200
Ge    2.94939000    5.58774000    7.40477000      0.163948   -1.05545900   -0.36630100
Ge    2.99737000    5.66619000   17.02817000     -0.485000    1.46886300   -0.15696500
Ge    3.34588000   11.31622000    7.26195000      0.124533    1.17783100    0.11705300
Ge    2.89934000   11.83774000   17.04891000     -0.150221   -1.07594300    0.33443000
Ge    2.98475000   17.62132000    7.19556000      1.184963   -1.00815700   -0.32815500
Ge    2.63751000   17.71664000   16.99638000      1.307304   -0.94162200    0.93286100
Ge    3.03654000   23.22113000    7.33941000      0.954096   -1.00549200    0.68726400
Ge    2.59187000   23.14287000   17.17486000      0.575455   -0.73269300   -0.41597900
Ge    8.35761000    5.45886000    7.38545000      1.146787   -0.47201600   -1.31677900
Ge    8.84531000    5.70235000   16.91287000     -0.378586    0.21507600    0.37762300
Ge    8.78074000   11.54118000    7.26454000      0.516289    0.54323600    1.07122100
Ge    8.84661000   11.58110000   16.96973000     -2.245762    0.76931700    1.16921300
Ge    8.80438000   17.41175000    7.12582000     -0.041751    0.78112700    0.31443000
Ge    8.71728000   17.28695000   17.18954000     -0.064133   -0.47178400    0.63484500
Ge    8.84558000    0.12532000    7.55176000     -0.552557   -0.15589000   -1.39615300
Ge    8.71353000    0.36495000   17.13221000      0.055574   -1.53040800    0.87839300
Ge   14.76121000    5.77219000    7.38295000     -0.613440   -1.70499900   -0.06058700
Ge   14.86370000    5.82373000   17.00101000      0.119521   -0.84384800    0.80229800
Ge   14.12971000   11.81501000    7.20416000      1.251731   -1.04048900    0.78522100
Ge   14.41717000   11.75015000   17.07972000     -0.589031    0.38756000    0.13913200
Ge   14.25858000   17.35131000    7.05458000      0.928057   -0.04038600    0.33947200
Ge   14.82123000   17.31704000   17.25417000     -0.743940   -0.65958600    0.02849500
Ge   14.17336000   23.20788000    6.87260000     -0.354058    0.77556300    0.96201800
Ge   14.90177000   23.05992000   17.26724000     -0.653462   -0.18698000   -0.45735300
Ge   20.39699000    5.91421000    7.26921000      0.898891   -0.14244400    0.23167900
Ge   20.42812000    5.55205000   16.87267000     -0.306714    0.39629600    0.23942300
Ge   20.32368000   11.51059000    7.31808000      0.094509   -0.25187300    0.42301000
Ge   20.31484000   11.85937000   17.00907000      0.545172   -0.46037200   -0.15630700
Ge   20.31108000   17.81515000    7.34391000     -1.061615   -0.55675300   -0.30059300
Ge   20.20088000   17.84278000   17.47980000     -1.444876   -1.23595900   -1.56955600
Ge   20.06127000    0.03441000    7.26243000      1.344991    0.59749700    0.54615300
Ge   20.32964000    0.13262000   16.85926000     -0.059807   -0.53287300    1.35494900
Ge    3.16432000    2.60201000    4.73926000      0.901829    0.96133000   -0.22854000
Ge    3.03934000    3.02089000   14.60799000      0.273940   -0.19925500   -0.68642200
Ge    3.06377000    8.54381000    4.94310000     -0.525128    0.07144000   -0.26550200
Ge    2.45220000    8.65400000   14.54229000      0.329879   -0.24113800   -0.25310500
Ge    3.15455000   14.68215000    4.92229000      1.124697    0.45644500   -0.39141800
Ge    3.19193000   14.57365000   14.36414000     -1.358405   -0.10613100    1.81251700
Ge    2.96216000   20.60517000    4.81587000      0.042133   -1.52968800   -0.64694900
Ge    2.62348000   20.21169000   14.60100000      2.186174    0.54251800   -0.54979400
Ge    8.73569000    2.70446000    4.73633000     -0.465169    0.58670900    0.05809100
Ge    8.80659000    2.55346000   14.76652000      0.053580    0.60726200   -2.01635200
Ge    8.57461000    8.50480000    4.95375000      0.387277    0.13793000    0.51875100
Ge    8.62068000    8.70477000   14.73902000      0.096112   -0.45443700   -1.14045500
Ge    8.72004000   14.35841000    4.49186000      0.383593    0.48690900    1.14796100
Ge    8.77005000   14.56823000   14.87138000     -0.794417   -0.64922800   -0.21810700
Ge    8.57217000   20.45268000    4.79016000     -1.238905    0.03572000    0.46214600
Ge    8.72249000   20.21738000   14.97652000     -0.663757   -1.17069400    0.06461000
Ge   14.35448000    3.06681000    4.72696000      0.153880    0.72611000    0.52616400
Ge   14.56348000    2.89942000   14.48502000      0.237805    0.48827600    1.48422500
Ge   14.54771000    8.69543000    4.66055000     -0.610028   -0.07865400    0.66305000
Ge   14.91994000    8.83834000   14.57126000     -0.462866    0.73756100    1.02225000
Ge   14.44972000   14.31946000    4.81221000      1.605027    0.53949700   -0.47752200
Ge   14.43617000   14.48645000   14.51440000      0.912072    0.74873700    0.40629300
Ge   14.32535000   20.25727000    4.90548000     -0.382159   -0.00697300   -0.95140500
Ge   14.71254000   20.46528000   14.97095000      0.161296   -0.27950500   -0.97795500
Ge   20.53030000    3.12084000    4.99793000      0.501421   -0.94377500   -0.93195500
Ge   20.64998000    2.85478000   14.47402000      0.762687    0.83134800    0.44721200
Ge   20.06332000    8.52881000    4.81480000      1.176308    1.67152700    0.19696800
Ge   20.35168000    8.71290000   14.67258000      0.028583    1.37743000    0.28203800
Ge   20.73840000   14.54788000    5.18056000      0.072374    0.54940100   -0.64866900
Ge   20.65710000   15.09901000   14.54460000     -1.468466   -0.95304500   -0.03433200
Ge   20.28195000   20.44879000    4.98177000      0.839267    0.14079700   -1.06609800
Ge   19.90023000   20.26267000   14.59645000     -1.552789    0.39482600    0.10930500
Ge    5.89791000    2.94211000    2.23722000     -0.534829   -0.11562900    0.07575600
Ge    6.00858000    2.94398000   11.97039000      0.889717   -0.37277800    0.84150400
Ge    5.56563000    8.61942000    2.54134000      0.672306    0.26173100   -0.55009700
Ge    5.55423000    8.60153000   12.13620000      0.604970   -0.40967900    1.00346800
Ge    6.05865000   14.35031000    2.13781000     -1.562344    1.31773200    0.48823300
Ge    6.12933000   14.82247000   12.40005000      1.057055   -0.68718700    0.30034900
Ge    5.77765000   20.28794000    2.19874000     -0.613139   -0.91476800    0.94299800
Ge    5.56360000   20.38036000   12.45984000      1.125345   -0.53826100    0.84596100
Ge   11.69475000    3.21358000    2.27199000      0.127507   -0.66802500    0.29939300
Ge   11.81268000    2.33499000   12.50388000     -0.585340    0.66378700    0.17112500
Ge   11.53425000    8.46766000    2.41085000     -0.646211   -0.24096200   -0.60864300
Ge   11.60335000    8.57071000   12.31975000     -0.627277    1.40984900   -0.45366200
Ge   11.57916000   14.05404000    2.35511000      1.106221    0.82326800   -0.63472500
Ge   11.46943000   14.36379000   12.41812000      0.961859    0.32768300   -0.12966800
Ge   11.47821000   20.12703000    2.49593000      1.366736    2.09085400   -1.64925500
Ge   11.56502000   20.13355000   12.30361000      0.531126    1.05401700    1.08011700
Ge   17.58981000    3.17698000    2.67564000     -0.333390   -0.81915000   -0.55848700
Ge   17.90873000    3.23045000   12.12234000     -1.178318   -0.96121100   -0.18831800
Ge   17.59615000    9.03287000    2.39893000     -1.321199    0.09426400   -0.25857400
Ge   17.59474000    8.94194000   12.09125000     -0.342397    0.79641900    0.81327100
Ge   17.58144000   14.65341000    2.65961000     -0.995382   -0.82912800   -0.12283600
Ge   17.45568000   14.99643000   11.98007000     -0.414408   -0.09595700    0.52355800
Ge   17.11697000   20.38255000    2.72360000     -0.081631   -0.22794100   -0.77009900
Ge   17.31635000   20.57869000   11.91911000      0.295802    0.77228500   -1.32104700
Ge    0.18580000    3.03183000    2.48446000     -1.237945   -1.05168300   -0.10385200
Ge    0.15969000    2.92210000   11.77996000      0.976752   -0.42214600    0.79357200
Ge   23.09318000    8.79816000    2.42317000      0.199708   -0.41642900   -0.07947600
Ge   22.87583000    8.53564000   12.08642000     -0.924321   -1.73958900    0.71601500
Ge   23.11755000   14.70012000    2.58035000      0.230196   -0.77901400    0.57799700
Ge    0.10822000   14.41810000   11.99059000      0.442564    0.31922300   -0.21277200
Ge   22.99935000   20.68826000    2.55151000      1.534032    0.12162900    0.68651200
Ge   23.06110000   20.04418000   12.15299000     -0.183533   -0.65843200   -0.71451700
Se    1.39394000    1.29401000    1.23569000     -0.268660    0.42138100    0.03436500
Se    1.60268000    1.13802000   10.66463000     -0.013187    1.04512500    0.79734300
Se    1.30942000    7.36250000    0.97095000     -0.150240    0.43883400    0.42968500
Se    1.20140000    6.92689000   11.39883000      0.907983   -0.36015900   -0.84506800
Se    1.25067000   13.15335000    1.41637000      0.654349    0.17625700   -0.14718800
Se    1.70331000   12.93193000   10.93390000     -0.529349    0.14014800   -0.15851100
Se    1.07580000   19.02307000    1.39528000      0.797754    0.15694500    0.09077700
Se    1.64694000   19.12220000   10.55911000     -1.154133   -0.51672100    0.77907300
Se    7.25468000    1.40269000    1.01510000     -0.086272    0.19385700   -0.16179600
Se    7.40207000    0.99195000   11.32064000     -0.836236    0.22846000   -0.58174600
Se    7.03950000    7.22402000    1.21795000      0.136283    0.04014400    0.29157000
Se    7.19343000    7.16118000   11.13267000      0.081573   -0.04901700   -0.37296900
Se    7.51169000   12.76423000    1.23396000      0.127478   -0.24921500   -0.28843400
Se    7.49953000   13.32170000   11.03617000      0.106564    0.03878900    0.14759900
Se    7.11534000   18.57052000    1.43331000      0.617622   -0.43064800   -0.59903500
Se    7.04698000   18.86123000   11.47491000      1.013494   -0.57710800   -1.06031800
Se   13.20693000    1.66260000    1.08666000      0.050389    0.46054300    0.69511300
Se   13.27261000    1.35156000   10.91757000      0.999277    0.11369000    0.05928000
Se   13.12701000    7.22439000    1.08534000     -0.458758    0.00460900    0.13739600
Se   12.72952000    6.77855000   11.45821000      0.986982   -0.68813200   -1.36271900
Se   12.95000000   12.67641000    0.99155000      0.064930   -0.47969700    0.17587300
Se   13.07673000   13.06675000   11.19688000     -0.397164   -0.09109100   -0.63386800
Se   12.95716000   18.47702000    1.47942000     -0.283840    0.47916200    0.02013100
Se   13.03638000   18.92852000   10.99074000      0.616930   -0.65880200   -0.32433600
Se   19.00595000    1.68499000    1.34529000     -0.428302    0.29180200    0.53852800
Se   18.84860000    1.53426000   10.52662000     -0.265723    0.35064900    0.64700300
Se   19.02642000    7.51927000    1.29041000      1.404621    0.48253600    0.11629100
Se   19.07547000    7.76586000   10.69917000      0.363818    0.12522900    0.06046600
Se   19.03655000   13.19685000    1.36349000     -0.280141    0.17830600    0.27074400
Se   18.72738000   13.49280000   10.62744000      0.242415   -0.21149100    0.06845700
Se   18.67389000   19.03577000    1.46792000     -0.082867   -0.22005500    0.12733500
Se   18.68532000   19.05755000   10.41430000     -0.743920    0.49589400    0.69627400
Se    4.11303000    4.16182000    1.07801000      0.912767    0.22253500   -0.05879100
Se    4.48278000    4.17823000   10.67696000     -0.312309   -0.05253700    0.43557500
Se    4.18958000   10.06035000    1.19941000      0.523300    0.60736600   -0.08759100
Se    4.41426000   10.46358000   11.39247000     -0.084433    0.40238700   -0.80755400
Se    4.21020000   15.73653000    0.97451000      1.358477    0.15671600    0.14515100
Se    4.44005000   15.79127000   11.19639000     -0.257380    0.97572300   -1.04344100
Se    4.43355000   21.66167000    0.95649000     -1.131158    0.65091500   -0.47719100
Se    4.32552000   21.61285000   11.02283000     -1.457189    0.71715600   -0.57528800
Se   10.19654000    4.51074000    1.03978000     -0.947192   -0.04923000    0.22628500
Se   10.31737000    3.84380000   11.39977000     -0.668244    0.20148200   -0.82616500
Se    9.78819000    9.36047000    0.89548000      1.315024    1.12040600    0.32611400
Se   10.30713000   10.49220000   11.29796000     -0.084852   -0.94868600    0.18255100
Se   10.08675000   15.49848000    1.22231000      0.187228    0.94454000   -0.65088600
Se   10.12620000   15.80630000   11.04213000     -0.044381    0.35969100   -0.15211800
Se   10.09074000   21.88816000    1.32665000      1.224924   -0.31949900   -0.16708400
Se   10.31235000   21.74103000   11.12336000      0.032816    0.56448600   -0.58773600
Se   16.30516000    4.70186000    1.32129000     -1.332113   -0.92291000    0.66810100
Se   16.36902000    4.86041000   11.20459000     -0.046157    0.04734500   -0.31296000
Se   15.90917000   10.24298000    1.18916000      0.852174    0.28753800   -0.09283200
Se   15.82332000   10.50852000   11.31144000      0.641355   -0.39052200   -0.31357000
Se   15.89306000   15.63049000    1.08943000      1.151844    0.74152600    0.55736800
Se   15.68453000   16.10206000   10.67290000      0.477564    0.08612200    0.38365600
Se   15.79684000   21.99075000    1.41635000      0.546177    0.00087500    0.10973600
Se   15.62329000   22.26533000   11.17914000      0.673241   -0.67317600   -0.23436000
Se   21.75255000    4.46600000    1.42909000      1.054811   -0.06505800   -0.65282200
Se   21.66848000    4.22540000   10.91317000      0.093797    0.19831400   -0.49376200
Se   21.51766000   10.39625000    1.54647000      0.710881    0.16013300   -0.51425500
Se   21.91092000    9.95669000   10.58515000     -0.597531    1.07555200   -0.72212400
Se   21.58674000   15.99630000    1.29177000     -0.555819    0.01617500    0.15281400
Se   22.03408000   16.19779000   10.94808000     -0.135719   -0.22147300   -0.07034200
Se   21.47170000   21.87114000    1.27380000     -0.457669    0.61321500   -0.21356900
Se   21.67806000   21.54781000   10.90722000      0.326346    0.80918200   -0.24753700
Se    1.37857000    4.01074000    8.56836000      0.672613    0.68360800   -0.12630400
Se    1.45716000    4.25783000   18.07385000     -0.571200   -0.04321400    0.88624400
Se    1.61985000    9.96283000    8.17702000     -0.279802   -0.08553200    0.23258500
Se    1.23409000   10.43485000   18.36825000      0.245229    0.68193900   -0.04644700
Se    1.58699000   16.02974000    8.33489000      0.080739   -0.45419400   -0.39361400
Se    1.31659000   16.34904000   18.47527000     -0.143939   -0.09461500    0.00849900
Se    1.62984000   21.50773000    8.45123000      0.114252    1.24010700   -0.05760300
Se    1.13446000   21.75403000   18.58927000      0.359209    0.32270300   -0.71118200
Se    7.11284000    3.94658000    8.60766000     -0.141810    0.15764800    0.11009300
Se    7.32052000    4.49360000   18.42227000      0.525446   -0.78541100   -0.35088100
Se    7.32678000   10.22485000    8.74468000      0.004282    0.35033700   -0.17732400
Se    7.20500000    9.98923000   18.20492000      0.130085    1.21395100   -0.12037800
Se    7.28863000   16.09357000    8.37979000     -0.490201   -0.00401400    0.79497400
Se    7.08358000   15.87341000   18.38104000      0.710481   -0.04397600   -0.26100500
Se    7.36750000   21.71524000    8.47737000      0.035713   -0.42437800    0.06313500
Se    7.42961000   21.86274000   18.53046000      1.257794   -0.09196400   -1.36149000
Se   13.24487000    4.18985000    8.47894000     -0.103972    0.61154600    0.47865400
Se   13.20343000    4.26389000   18.55906000      2.023885   -0.47779400   -1.78080700
Se   12.82415000   10.17737000    8.45028000      0.760238   -0.52308300   -0.60651200
Se   13.25975000    9.86012000   18.30030000      0.518621    0.13412900   -0.62012800
Se   12.96899000   15.97375000    8.45038000     -0.031540   -0.86579000    0.13600000
Se   13.11374000   15.78757000   18.34025000      0.093781    1.00200300    0.07989500
Se   12.76787000   21.65786000    8.09895000      0.210115    0.16036800    0.12643600
Se   13.09291000   21.73823000   18.39711000      0.322537   -0.03463200   -0.42145900
Se   19.03129000    4.63250000    8.77446000      0.381636   -0.87752500   -0.56618400
Se   19.02263000    4.25889000   18.49641000      0.130308    0.78562600   -0.51059500
Se   18.50273000   10.34297000    8.35112000     -0.541351    0.53854900    0.53270600
Se   18.99906000   10.46992000   18.38891000     -0.923095    0.25122400    0.31941200
Se   18.81998000   16.21837000    8.35283000     -0.233854    0.23571000    0.22114200
Se   18.91714000   16.13880000   18.61082000      0.435411   -0.09058800   -0.31613000
Se   18.51884000   21.96958000    8.43831000      0.154809   -0.97795100    0.05472700
Se   18.94982000   22.12322000   18.45958000     -0.546152   -0.42799700   -0.20224400
Se    4.57342000    1.54256000    8.42108000     -0.011596   -1.53447100    0.50594700
Se    4.22034000    1.37911000   18.03496000      0.424168    0.24128600    0.38288600
Se    4.39355000    7.06208000    8.60337000     -0.934640    1.35616400   -0.62751700
Se    4.41918000    7.24458000   18.16122000     -0.442905    0.13998400    0.02274800
Se    4.20399000   12.96856000    8.99720000      0.017081   -0.27842500   -1.17510800
Se    4.46425000   13.28855000   18.20913000      0.116177   -1.00074000    0.40349400
Se    4.04812000   18.92467000    8.87751000      0.841596    0.00838100    0.22631300
Se    4.43849000   19.03513000   18.16444000     -0.778213    0.19674200   -0.49174600
Se   10.21264000    1.52477000    8.90404000      0.349766   -0.43147500   -0.04544500
Se   10.22954000    1.72600000   18.48058000      0.222392   -0.96673400   -0.29550400
Se    9.96768000    6.72331000    8.48478000      0.877343    0.63815700    1.06157700
Se   10.30130000    7.27311000   18.06199000     -0.166038   -0.56525400   -0.53395800
Se   10.15367000   13.28785000    8.64312000     -0.337055   -1.20294500   -0.67670700
Se   10.41302000   12.76375000   18.31313000     -0.159412   -0.04908600   -0.16909700
Se   10.29715000   18.81501000    8.61131000     -0.693156   -0.21276000   -0.55401200
Se   10.11678000   18.81885000   18.40729000     -0.005923   -0.03864600    0.08067300
Se   15.78198000    1.37410000    8.01075000     -0.195188    0.42894000    0.40552600
Se   15.71121000    1.50875000   18.64424000      0.885408    0.37908400    0.17387500
Se   16.13221000    7.42497000    8.04715000      0.996759    0.98798300    1.64776000
Se   16.15992000    7.39780000   18.30815000      0.185586   -0.60966300    0.20406400
Se   15.45138000   13.38171000    8.61307000      0.049011   -0.88193100   -0.20296500
Se   15.87194000   13.32414000   18.42786000     -0.484745   -0.17760500   -0.37182100
Se   15.54883000   19.04030000    8.11719000      0.617525   -0.44742200    0.67094400
Se   15.96827000   18.92375000   18.66898000     -1.145938    0.78048000   -1.14188500
Se   21.81810000    1.29919000    8.59491000     -0.481228   -0.23887500   -0.47194600
Se   21.22048000    1.67511000   18.45884000      1.587762   -0.47175600   -0.06387700
Se   22.04201000    7.19828000    8.52585000     -0.215297    0.17585700   -0.15096900
Se   21.74325000    7.18931000   17.99229000     -0.135947    0.38523600    0.26925000
Se   21.72112000   12.90465000    8.68123000      0.835052   -0.35316500    0.18966600
Se   21.58856000   13.36965000   18.36242000      0.150677    0.35180000   -0.25259000
Se   21.94569000   19.13918000    8.32932000      0.547731    0.10888900    0.60891300
Se   21.63185000   19.24205000   18.52651000      0.269415    1.08860300    0.17414400
Se    1.68371000    1.21749000    5.94789000     -0.971197    0.87901000   -0.08437400
Se    1.51346000    1.40962000   15.73459000     -0.692718    0.58836300   -0.46553000
Se    1.54199000    7.27598000    6.45662000      0.279067    0.22335300   -0.59638100
Se    1.28077000    6.89796000   15.69711000      0.404718    0.07843500    0.11552700
Se    1.96834000   12.86586000    5.85309000     -0.267937   -0.57332600    0.69960100
Se    1.52593000   13.20416000   15.80202000     -0.008901    0.50607100   -1.11710800
Se    1.58479000   18.94596000    5.88819000     -0.482581   -0.05106200    0.07038000
Se    1.14960000   18.66810000   15.48425000     -0.920816    0.03266000    0.35033900
Se    7.17044000    1.35593000    6.03728000      1.003130   -0.22736600    0.26679700
Se    7.04537000    1.46366000   15.77615000     -0.250280   -0.57671200    0.56927700
Se    7.00270000    7.03942000    6.10943000      0.284260   -0.12919100    0.06328500
Se    7.28511000    7.14261000   15.79333000     -0.415952   -0.70929900    0.44977200
Se    7.42873000   12.61627000    5.63565000     -0.464695    0.57689600    0.14519000
Se    7.19129000   13.41314000   16.19241000      0.888401   -1.06366300    0.17374800
Se    7.12703000   18.81642000    5.97620000      0.891844    0.19057900   -0.10553300
Se    7.15043000   18.63203000   16.19368000      0.329322    1.31001300   -0.81569200
Se   12.76874000    1.71389000    6.02271000      0.144621   -0.20797700   -0.52457900
Se   13.45861000    1.02663000   15.73971000     -0.100819    0.51191400   -0.13441900
Se   13.38754000    7.09360000    6.10973000     -1.398000    0.69842200   -0.94550700
Se   13.50276000    7.27461000   15.75612000     -0.579111    0.09574300   -0.16539300
Se   12.81397000   13.03647000    5.78738000     -1.293932   -0.00006100    0.28840400
Se   12.86236000   13.01897000   15.41575000      0.409468   -0.64082900    1.31930500
Se   12.85863000   18.66102000    5.73951000     -1.326780    0.07535800   -0.00541300
Se   13.31367000   18.75807000   16.06202000      0.374220    0.51765900   -0.31451500
Se   18.99260000    1.92072000    6.35169000     -0.607622    0.05973600   -0.12356500
Se   19.02895000    1.66093000   15.77135000     -0.868807    0.62618300   -0.72581700
Se   18.75745000    7.39041000    6.36178000     -0.275007   -0.47066700   -0.05113000
Se   18.93130000    7.34454000   15.90997000     -0.517665   -1.03485500    0.70705400
Se   19.20023000   13.38261000    6.42830000     -1.130257   -0.24472300    0.26732600
Se   19.10923000   13.19448000   15.46423000      0.256302    0.82565200   -0.07160700
Se   18.76251000   19.31962000    6.24449000     -0.448456   -0.90117000    0.63952100
Se   18.35810000   18.85478000   16.22464000      1.409226    0.64068800   -0.62205100
Se    4.66083000    4.33756000    5.98330000     -1.464781   -0.39453700   -0.02851700
Se    4.59499000    4.43528000   15.91866000     -0.045597   -0.94565300   -0.76677300
Se    4.87750000    9.88954000    6.02218000     -0.872341    0.06864100    0.05561500
Se    4.01036000    9.89294000   15.87485000     -0.054417    0.58881800    0.20510300
Se    4.86180000   16.28545000    5.99023000     -2.055284   -0.31212600    0.07917300
Se    4.10123000   15.80390000   16.30084000     -0.138875    0.61778300   -0.66055100
Se    4.49327000   21.62524000    6.14016000      0.868740    0.74811400    0.75280600
Se    4.19142000   21.83630000   15.82860000     -1.301607   -0.69129000    0.00076700
Se   10.07099000    3.97149000    6.29467000     -0.593904    0.50364000   -0.40438500
Se   10.24761000    3.95104000   15.94419000      0.131823    0.73774500    0.44077400
Se   10.06077000    9.65717000    6.58281000     -0.103891   -0.12966900   -0.57183600
Se   10.13477000    9.99883000   15.94881000      1.192114   -0.21021500   -0.44606200
Se   10.21371000   15.93630000    5.86575000     -0.345728   -0.56424700   -0.25036800
Se   10.22021000   16.05968000   15.81167000      1.281469    0.60431900    0.98058800
Se   10.09895000   21.73890000    6.02952000      0.018745    0.62014200    0.59854100
Se   10.10259000   21.69759000   16.17358000      0.119481    0.58602600    0.14446500
Se   16.01539000    4.13744000    6.22425000     -0.301399    0.07177300   -0.47796200
Se   16.21491000    4.20513000   15.83977000     -0.777101    0.15483200    0.02410900
Se   15.64273000   10.29925000    5.97956000      0.469879    0.65051800    0.45071200
Se   16.04979000   10.67564000   15.82557000      0.446382   -0.97179500   -0.60796200
Se   15.92172000   15.92380000    6.07435000     -0.775732   -0.40420200   -0.38573100
Se   16.13208000   15.81896000   15.82692000     -0.576620    0.10750700    0.06340800
Se   15.69756000   21.78660000    5.92346000      1.196933    0.21816300    0.07063500
Se   16.51185000   21.77049000   16.00736000     -0.801611   -0.25643200    0.33538700
Se   22.05203000    4.56898000    6.03931000     -0.533485    0.30953400    0.38182200
Se   22.23525000    4.43670000   15.71825000     -1.307658   -0.83123900   -0.31046600
Se   21.69001000    9.98444000    6.13353000     -0.399276   -0.23275400   -0.39014000
Se   21.81350000   10.06191000   16.10329000     -0.320155    0.35136300   -0.10172800
Se   21.81029000   16.62992000    5.90866000      0.204868   -0.71672500    0.01474700
Se   21.82026000   16.48515000   16.05725000     -0.097654   -0.17058700    0.44063400
Se   21.73012000   21.85279000    6.30628000     -0.479144    0.26369600   -0.42083700
Se   21.46532000   21.73693000   15.58900000      0.848712    0.24464900    0.48112500
Se    4.44349000    1.20226000    3.18082000     -0.221261    0.74831700    0.66573400
Se    4.48368000    1.57540000   13.19957000     -0.315133    0.05369600    0.73301300
Se    4.10303000    6.94195000    3.41871000     -0.000292    0.61290900    0.50561100
Se    3.95684000    7.17951000   13.18931000      0.033474    0.33193300    0.41721700
Se    4.42921000   13.14910000    3.47617000      0.165758    0.13377000    0.15281400
Se    4.83127000   13.14405000   13.56361000      0.149969   -0.17433500   -0.06003300
Se    4.06831000   18.98423000    3.38817000      0.319890    0.66307700   -0.09252700
Se    4.52012000   18.69535000   13.61594000     -1.659326    0.41606100    0.73517000
Se   10.25215000    1.50184000    3.24765000     -0.213324    0.47459200    0.32498600
Se   10.19675000    0.84290000   13.52787000     -0.048129    0.69426200    0.37717000
Se   10.18893000    7.11829000    3.89203000      0.008661   -0.60501100   -0.01034300
Se   10.17913000    7.22859000   13.55225000     -0.869913    0.03596300    0.52042000
Se   10.08645000   12.71187000    3.45300000     -0.435836   -0.64917100    0.48955000
Se   10.01377000   12.93565000   13.71548000      0.183477   -0.03489000   -0.38087500
Se   10.02222000   18.97417000    3.71530000     -0.830585   -1.90859900    0.73827100
Se   10.09600000   18.74372000   13.53551000     -0.095629    0.12634300    0.35762700
Se   16.22206000    1.69128000    4.04843000     -0.183936   -0.06520200   -0.78733500
Se   16.23375000    1.67730000   13.48754000      0.968778    0.07157600   -1.27646600
Se   16.26464000    7.48066000    3.65754000      0.013480   -0.54893600   -0.15974700
Se   16.36788000    7.39768000   13.58071000      0.874953   -0.51497800   -1.05813600
Se   15.98898000   12.86513000    3.63695000      0.403530    1.11768200    0.02218300
Se   15.95487000   13.35454000   13.06960000      0.632118    0.12227700    0.09147800
Se   15.95356000   18.83561000    4.05984000      0.515974   -0.76893600   -0.60294400
Se   16.34779000   19.17507000   13.39244000     -1.222974   -1.02498800    1.26572300
Se   21.89062000    1.40763000    3.79104000      0.002553    1.43898700   -0.07120100
Se   21.85705000    1.49909000   12.96548000     -0.008782   -0.76483800    0.35298000
Se   21.68123000    7.20025000    3.71090000      0.291805    0.11878200   -0.34242400
Se   21.40734000    7.03737000   13.53015000      1.264602    0.36381100   -1.20399000
Se   21.87025000   12.93931000    3.84969000      0.311218    1.02458900   -0.14578100
Se   21.89435000   13.32423000   13.46676000     -0.349148    0.03069100    0.16602700
Se   21.97718000   19.02441000    3.81404000     -1.053918    0.21620600    0.56245300
Se   21.55468000   18.81330000   13.87537000      1.092945   -0.42997000   -1.10947500
Se    1.60198000    4.29289000    3.83066000      0.616494    0.08285400    0.36615300
Se    1.65809000    4.48555000   13.08210000     -0.272665   -0.93619500    0.50939000
Se    1.40267000   10.09082000    3.75994000      0.451500   -0.42338700    0.32612800
Se    0.97938000   10.01672000   13.14398000      1.150810    0.97546400    1.18064000
Se    1.44692000   16.04110000    3.80208000      0.033778    0.21083200    0.11028800
Se    1.72325000   15.89132000   13.00675000     -0.077617    0.22949100    0.22701400
Se    1.41455000   22.13526000    4.11000000     -1.455744   -0.06633000   -1.49215200
Se    1.39875000   21.53672000   13.02802000      0.517505    0.80990100    0.83609800
Se    7.10815000    4.46343000    3.66402000      0.506844   -1.09125100    0.11105500
Se    7.70111000    4.27539000   13.25232000     -0.503383   -0.84451300    0.16619500
Se    7.24611000   10.09168000    3.78258000     -0.521591   -0.64922600   -0.43485200
Se    6.94949000    9.99476000   13.66960000      0.063597    0.00201300   -0.34737200
Se    7.34091000   15.98159000    3.47816000     -0.273730   -0.42676200   -0.34210900
Se    7.70502000   16.25666000   13.63607000     -1.097112   -0.39371700   -0.81412500
Se    7.17009000   21.74530000    3.31357000      0.574780    0.83842100    0.67684700
Se    7.16431000   21.55756000   13.84278000     -0.243492    1.08824000   -0.41405700
Se   13.09933000    4.82092000    3.38814000      0.537911   -1.14005200    0.46598700
Se   12.79292000    4.29422000   13.61484000      0.660510   -1.10303800   -0.11622600
Se   12.82702000   10.00746000    3.62088000      0.268394    0.39986500    0.04505900
Se   13.19847000    9.95659000   13.39598000      0.023372    0.64800200   -0.04300900
Se   12.94855000   15.66046000    3.57351000     -0.207175    0.07964900   -0.40541400
Se   13.10101000   16.03509000   13.38478000     -0.948019   -0.09417800   -0.31823000
Se   13.23348000   21.67705000    3.35691000     -0.791180   -0.48576800    0.01794600
Se   13.09273000   21.77154000   13.69339000     -0.347715   -0.83018500   -0.26021900
Se   19.08158000    4.59791000    3.69811000      0.709690    0.37479600    0.66210600
Se   19.14962000    4.52926000   13.65173000      0.112466    0.04050500   -0.33675300
Se   18.74893000   10.39265000    3.89141000      0.689750   -0.22576700    0.24776600
Se   19.23066000   10.36095000   13.30472000     -0.569221   -0.44737800   -0.05482400
Se   19.13076000   15.94109000    3.94740000     -0.203973    0.32157300   -0.07625500
Se   19.02036000   16.48814000   13.25578000     -0.057003   -0.65922400   -0.20089400
Se   18.74277000   21.78209000    3.59733000      0.962163    0.89030100    0.68752200
Se   19.07363000   21.85299000   12.84579000      0.217685   -0.17060800    0.87069200
