384
23.23808000 23.23808000 19.51320000
Ge    5.90930000    5.59882000    9.68353000     -0.556268    0.72930300   -0.48528300
Ge    5.40676000    5.84440000   19.40671000      1.439395    0.70810300   -0.53366400
Ge    6.03033000   11.84245000   10.09352000     -0.815424   -0.24215200   -0.46174400
Ge    5.99587000   11.36361000   19.47002000     -0.450638    1.50019800    0.17824400
Ge    5.73526000   17.39168000    9.95764000      0.125819    0.68464500   -0.72936400
Ge    5.71672000   17.42343000   19.35618000      0.990650    0.70998100    0.00555100
Ge    5.96762000    0.05216000    9.76381000     -0.687987   -1.81640200   -0.14365500
Ge    5.74603000    0.16682000   19.49310000     -0.172427   -1.39861000   -0.62272200
Ge   11.72040000    5.30301000    9.88189000     -0.791234   -0.56190100   -0.62522400
Ge   11.78127000    5.96015000   19.43063000     -0.163871   -1.52321900   -0.81816000
Ge   11.53329000   11.57155000    9.83262000      0.133502   -0.76524300   -0.35623200
Ge   11.48021000   11.15665000    0.10337000      1.321148    0.31839900   -1.07796900
Ge   11.62433000   17.26603000    9.89488000      0.290580   -0.23680900   -0.80627200
Ge   11.42176000   17.18360000   19.51137000      0.428151    1.54329300   -0.06499100
Ge   11.81231000   23.15879000    9.82047000      1.366747    0.04717600   -0.07388700
Ge   11.60754000    0.14365000   19.50207000      1.047063    0.34807400    0.00268500
Ge   17.54812000    6.14066000    9.93088000      1.338634   -0.72465300   -0.71742800
Ge   17.73274000    5.89901000   19.40757000      0.003815    0.22081600    1.90499000
Ge   17.12253000   11.69079000    9.72021000     -0.277784    1.14546600    0.45711500
Ge   17.36302000   11.69683000   19.41529000     -0.591389    1.36408100    0.84734100
Ge   17.17718000   17.51696000    9.36190000     -0.288091    0.69944300    0.81081100
Ge   17.51539000   17.41634000    0.16884000      0.433565    0.84314500   -1.04872800
Ge   17.00095000    0.28208000    9.80910000      0.561583   -0.75586800   -1.05880400
Ge   17.53669000    0.02158000    0.31190000     -0.703876    0.90995200    0.43809200
Ge   23.11664000    5.60074000    9.72991000      0.782216    0.26723800   -0.03857400
Ge   23.09468000    5.69155000   19.48576000      0.531398    1.22197200   -1.31847700
Ge    0.27695000   11.52576000    9.65727000      0.242799   -0.45636100   -0.07568400
Ge   23.05960000   11.81895000    0.03780000     -0.697431    0.55127100    0.93529000
Ge    0.22598000   17.67619000    9.46171000     -0.597178   -0.75791100    0.12253900
Ge   23.10809000   17.48275000    0.04817000     -0.579683    0.61750400    0.28083200
Ge    0.05595000   22.81305000    9.66611000      0.544666    1.47731200   -0.47590000
Ge   22.89737000    0.35832000    0.30025000      0.632074   -1.08224600   -0.66381300
Ge    2.86426000    5.59935000    7.35060000     -0.075265    0.66265500    0.61146500
Ge    2.72990000    5.90813000   17.11225000      0.531646   -0.81009300   -0.54027400
Ge    3.39221000   11.22737000    7.35762000     -0.279200   -0.81366800    0.13391600
Ge    2.95383000   11.72048000   17.16196000     -0.409517    0.30906900   -0.45472600
Ge    3.17031000   17.55887000    7.21336000     -0.964261    0.64081400    0.34003800
Ge    2.83236000   17.56498000   17.19221000     -0.991375    0.40589400   -0.57317900
Ge    3.21065000   23.08930000    7.15078000     -0.693314    0.97406900    0.23843800
Ge    2.55687000   22.96568000   17.05766000     -0.200567    1.19806800    0.26785100
Ge    8.36576000    5.42040000    7.26605000     -0.218864    0.92970300    1.42340300
Ge    8.77454000    5.71350000   16.82241000     -0.356808   -0.19770800    0.31784100
Ge    8.71329000   11.70245000    7.39201000     -0.663441   -0.93152200   -0.77159800
Ge    8.67029000   11.52190000   17.23014000      2.186058   -0.71357900   -0.72264400
Ge    8.80921000   17.62313000    7.22556000     -0.394778   -0.88689200    0.02818100
Ge    8.66658000   17.17550000   17.17700000     -0.228880    1.41888300   -0.51061500
Ge    8.90816000    0.05962000    7.28389000      0.029962   -0.77730400    1.56084300
Ge    8.61926000    0.15710000   17.21655000      0.622444    1.38227000   -1.17755000
Ge   14.53573000    5.55348000    7.23738000      0.467732    1.85033400    0.29889900
Ge   14.76033000    5.69693000   17.06941000      0.113364    1.23965300   -0.23114600
Ge   14.14117000   11.71035000    7.17800000     -0.436319    0.24073600    0.05931900
Ge   14.38943000   11.71665000   16.99392000      0.552430   -0.88484500    0.35115000
Ge   14.42732000   17.05461000    7.20323000     -0.703412    0.54297700   -0.63880000
Ge   14.64997000   17.28624000   17.34557000      0.361960    0.72423600   -0.61262400
Ge   14.39440000   23.19746000    6.90324000     -0.046712    0.53381900    0.29699000
Ge   14.87808000   23.20446000   17.20449000     -0.000816    0.39131100    0.94489000
Ge   20.32145000    5.85143000    7.49676000     -0.290990   -0.34322700   -0.75916600
Ge   20.25808000    5.62049000   16.90214000      0.787919    0.55528000    0.39732600
Ge   20.35772000   11.56290000    7.37546000     -0.450425    0.24919400    0.43402300
Ge   20.38080000   11.85420000   16.84083000     -0.539890    0.44457900    0.83425500
Ge   20.36345000   17.61863000    7.36916000      1.023952    0.40444800    0.02775800
Ge   20.18090000   17.58273000   17.10762000      0.746131    0.56870600    0.80807800
Ge   20.21282000    0.25655000    7.46595000     -1.308729   -0.68289400   -1.10344900
Ge   20.10528000    0.14564000   17.17659000      0.351009    0.34198300   -0.90820800
Ge    3.20582000    2.87436000    4.73118000     -0.933150   -0.82080300    0.00519900
Ge    3.10042000    2.93989000   14.61322000     -0.911090   -0.54322600    0.46282800
Ge    3.05112000    8.56087000    4.98410000      0.300325   -0.03823500    0.21939400
Ge    2.29352000    8.56373000   14.58482000      0.726987    0.51312800    0.03999700
Ge    3.38473000   14.61665000    4.96723000     -1.826835   -0.90964100   -0.67660900
Ge    2.97571000   14.53708000   14.65216000      1.275045    1.24856700   -1.09650100
Ge    2.97354000   20.61438000    4.69437000     -0.312065    0.38467000    0.71200600
Ge    2.87455000   20.16301000   14.52211000     -3.331927    0.41241900    0.57182000
Ge    8.61679000    2.77093000    4.80558000     -0.017101   -0.43374900   -0.08894800
Ge    8.56136000    2.63093000   14.46013000      0.416739   -0.56824500    1.50421500
Ge    8.59376000    8.43534000    5.04949000     -0.802844   -0.55179300   -0.58366600
Ge    8.75676000    8.54802000   14.65384000     -0.590633    0.41695800    0.85279000
Ge    8.60088000   14.37504000    4.68948000     -0.390629   -0.59218700   -0.76717700
Ge    8.65443000   14.69494000   14.94211000      0.642191   -0.07752300    0.10769900
Ge    8.47730000   20.40159000    4.67152000      1.471588    0.03757400    0.15646900
Ge    8.94621000   20.09239000   14.84733000      0.202578    1.34384100   -0.02044600
Ge   14.23102000    3.08635000    4.79202000      0.006551   -1.49646900   -0.12644000
Ge   14.56069000    3.09953000   14.93670000     -0.129216   -1.15526300   -1.47301000
Ge   14.48727000    8.69179000    4.74442000      0.852205    0.52596200   -0.07448000
Ge   15.01481000    9.10839000   14.60501000     -0.037780   -2.03814500   -0.82201100
Ge   14.60325000   14.35060000    4.92874000     -1.497097    0.23455100    0.01790300
Ge   14.50746000   14.44166000   14.62740000     -0.679276   -0.10566400   -0.40700800
Ge   14.20711000   20.26668000    4.72566000      0.993559   -0.62411800    0.48066000
Ge   14.80010000   20.42600000   14.87495000     -0.747387    0.20332000    0.96769400
Ge   20.42156000    3.19010000    4.83450000     -0.839381    0.67193300    0.96718200
Ge   20.87210000    2.70222000   14.54805000     -1.333077   -0.67079400   -0.62438500
Ge   20.20613000    8.72949000    4.93610000     -1.068778   -1.50719200   -0.62889600
Ge   20.25236000    8.86359000   14.78644000     -0.113866   -1.07037400   -0.52788000
Ge   20.60805000   14.74581000    5.12686000     -0.637164   -0.46442800    0.17401400
Ge   20.36640000   14.75028000   14.61351000      1.239915    0.95762000   -0.95308400
Ge   20.20179000   20.52074000    4.87292000     -0.836819   -0.02896900    0.73004600
Ge   19.64761000   20.42375000   14.68669000      2.584560    0.10870800   -0.30535500
Ge    5.66339000    2.88502000    2.16126000      0.780001   -0.20454600    0.30306600
Ge    6.04178000    2.84348000   11.98914000     -1.005302    0.34111800    0.02583900
Ge    5.63725000    8.66486000    2.30418000     -0.368854   -0.24025500    0.32861100
Ge    5.66996000    8.70465000   12.42856000     -0.538010   -0.01737000   -1.04034000
Ge    5.88285000   14.51470000    2.18577000      1.208901   -1.28975700   -0.28920300
Ge    6.11308000   14.71897000   12.43250000     -1.638891    0.08992900   -0.60441300
Ge    5.71312000   20.22492000    2.25620000      0.683523    0.78488500   -1.07757300
Ge    5.69760000   20.38307000   12.38767000     -0.124430    0.06945400   -0.99205800
Ge   11.67814000    3.17071000    2.45746000     -0.686380   -0.01347100   -0.64997600
Ge   11.70222000    2.49734000   12.52476000      0.461404   -0.13612400   -0.54430300
Ge   11.45479000    8.47538000    2.37443000      0.569260    0.00914900    1.12557000
Ge   11.57608000    8.72505000   12.41187000      0.351865   -1.43947400   -0.13806700
Ge   11.80564000   14.26423000    2.44551000     -0.756100   -0.35335100    0.04089200
Ge   11.52213000   14.47198000   12.55792000     -1.448765   -0.69344900   -0.64911800
Ge   11.79732000   20.27394000    2.46672000     -1.116903   -1.78102600    0.12241200
Ge   11.84576000   20.29784000   12.42162000      0.112828   -0.41579100   -0.32690900
Ge   17.48293000    3.19222000    2.75140000     -0.424449    0.53608200   -0.06483400
Ge   17.78800000    3.15473000   12.14560000      0.126958    0.21155700    0.57791400
Ge   17.45515000    8.95673000    2.10700000      0.727788   -0.68563000    1.16964300
Ge   17.57415000    8.98488000   12.13982000      0.473823   -0.89047800   -0.51380200
Ge   17.44036000   14.61007000    2.55534000      0.564989   -0.07852300    0.52078400
Ge   17.40660000   14.91824000   12.11447000     -0.109871   -0.11446300   -0.90317200
Ge   17.08227000   20.44067000    2.44691000      1.012883   -0.01118600    0.23943000
Ge   17.27054000   20.71479000   11.80170000     -0.306130   -0.59480400    1.63505300
Ge   23.21976000    2.98667000    2.41672000      1.563020    1.30959700    0.32181100
Ge    0.34827000    2.85058000   11.85281000     -1.649149   -0.21002400    0.39198000
Ge   23.18563000    8.72068000    2.37901000     -0.232979   -0.29130500    1.01448600
Ge   22.95099000    8.34484000   12.35666000      1.460928    1.25761800   -1.82369700
Ge   23.05856000   14.71080000    2.72764000      0.959482    1.14006300   -1.06141400
Ge    0.13074000   14.59823000   11.90061000     -0.560349   -0.16810200    0.45475400
Ge   22.98445000   20.81928000    2.74219000     -0.908466   -0.71011900   -0.81787100
Ge   22.95107000   20.06321000   12.11737000     -0.148986    0.87399200    0.97872300
Se    1.50618000    1.49827000    1.40040000     -0.743133   -0.13358700   -0.51201800
Se    1.64318000    1.16754000   10.78267000     -0.188855   -0.25602000   -0.29803300
Se    1.33136000    7.06136000    1.29732000     -0.086669    0.22122400   -0.19412800
Se    1.39542000    6.87435000   11.10245000     -0.772207    0.54615400    0.40860300
Se    1.21060000   13.23621000    1.50380000      0.191984   -0.62162800   -0.84881800
Se    1.60300000   12.88122000   11.10951000     -0.019259    0.40898000   -0.06546800
Se    0.98036000   19.16969000    1.41306000      0.492759   -0.02664700   -0.05125300
Se    1.47123000   19.10015000   10.83991000      0.308269    0.08038100    0.18731400
Se    7.38724000    1.38069000    1.29500000     -0.947509    0.24542400   -0.48534100
Se    7.56436000    1.30331000   10.96896000     -0.296438    0.02870700    0.10567800
Se    7.06739000    7.15341000    1.11786000     -0.637341   -0.07144200   -0.06871200
Se    7.09393000    7.19098000   11.07438000      0.358288    0.18897100    0.29879800
Se    7.56921000   12.85552000    1.13005000     -1.079120    0.03699500    0.05196000
Se    7.50152000   13.48754000   11.02721000      0.529790   -0.44417200   -0.42628200
Se    7.36580000   18.55744000    1.50220000     -1.276125    0.08290700   -0.87036400
Se    7.17757000   18.95253000   11.03808000     -0.133337    0.09407700    0.45259800
Se   13.11861000    1.79413000    1.25971000      0.072941   -1.11149600   -0.80349200
Se   13.40011000    1.42166000   11.00088000     -0.927258   -0.16157000    0.35191700
Se   13.25599000    7.33473000    1.14199000     -0.472202    0.27753800    0.38376100
Se   12.86466000    6.85948000   11.15000000      0.704853    1.35927100    0.43770900
Se   12.97927000   12.72526000    1.05489000      0.542481    0.04729800    0.32436400
Se   12.90151000   13.10287000   11.11778000      0.231595   -0.14269500   -0.15045800
Se   12.91394000   18.51060000    1.33886000      0.616288    0.42448500   -0.00314900
Se   13.16578000   18.96121000   10.74208000     -0.342869   -0.06770100    0.64080300
Se   18.87993000    1.62470000    1.61268000      0.233051   -0.20314800   -0.27961700
Se   18.90361000    1.44755000   10.67080000     -0.668539    0.37716500    0.61623200
Se   19.25473000    7.40070000    1.29828000     -1.453002    0.29270600   -0.58237700
Se   19.19657000    7.63053000   10.83548000     -0.784472    0.22071800    0.00350500
Se   18.87477000   12.95990000    1.64875000     -0.479747   -0.30912900   -1.19402200
Se   18.68143000   13.49910000   10.56589000     -0.292814   -0.64739300    0.29807800
Se   18.74160000   19.05996000    1.25037000      0.317501    0.52965300    0.56570900
Se   18.42994000   19.10417000   10.65724000      1.309169   -0.62787300   -0.38984600
Se    4.05964000    4.24250000    0.90556000      0.080506   -0.55467900    0.40512400
Se    4.37850000    4.14943000   10.70071000      0.156932   -0.50710000    0.83767400
Se    4.20724000   10.39600000    1.23008000      0.794382   -0.61607200    0.15626600
Se    4.41582000   10.49775000   11.27747000      0.569828   -0.56344400    0.16926100
Se    4.41699000   15.71155000    0.87725000     -1.162432    0.48726700   -0.34153900
Se    4.31035000   15.95966000   11.16140000      0.619278   -0.40509800    0.26944900
Se    4.20665000   21.53661000    0.72482000      1.241264    0.51100600    0.69214800
Se    4.14341000   21.82706000   10.92379000      1.788249    0.19900000    0.40072500
Se   10.25636000    4.40331000    1.00814000     -0.094243    0.69903300   -0.06171800
Se   10.25107000    4.05160000   11.41821000      0.306913   -0.00225900   -0.81385300
Se    9.98266000    9.59937000    0.86537000     -0.810951   -0.44511600    0.57647700
Se   10.06393000   10.21478000   11.33584000      0.138907    0.18245900   -0.42306600
Se   10.22548000   15.67186000    1.18191000     -1.009684   -1.02819800    0.66322400
Se   10.00932000   15.84408000   10.93545000      0.610504   -0.10716600    0.76131700
Se   10.41846000   21.81557000    1.41376000     -1.349617    0.60044700   -0.95483700
Se   10.44034000   21.77692000   11.08197000     -0.390911   -0.61731200    0.58415900
Se   16.12334000    4.76934000    1.50838000      0.559167   -0.08410500   -0.81497700
Se   16.27694000    4.87728000   11.39879000     -0.289132   -0.68824800    0.19454600
Se   15.75765000   10.29051000    1.05774000      0.723986   -0.32002500   -0.06779800
Se   15.81867000   10.38736000   11.37269000      0.618162    0.23855300   -0.93708200
Se   16.08491000   15.93452000    1.09702000     -1.038674   -0.81707000    0.85843600
Se   15.80579000   16.13336000   10.67726000     -0.000400   -0.34025700    0.74197600
Se   15.72278000   22.05374000    1.31002000      0.424853   -0.38889800    0.16572600
Se   15.52566000   21.98691000   11.02615000     -0.241392    0.73620700   -0.34968600
Se   21.70807000    4.39504000    1.23180000     -0.752849   -0.64669400    0.59980100
Se   21.55917000    4.32443000   10.85576000      0.811387   -0.99254300    0.60487300
Se   21.54163000   10.27940000    1.48075000      1.040116    0.14189100   -0.59433900
Se   21.96693000   10.02187000   10.59043000     -0.565357   -0.65473700    0.78570400
Se   21.57062000   15.98098000    1.25367000      0.528023    0.15706200    0.18797700
Se   21.96232000   16.27882000   10.85928000      0.272921   -0.15946200   -0.35202900
Se   21.25909000   22.18486000    1.33418000      1.301336   -0.37896300    0.71590500
Se   21.64142000   21.83742000   10.94030000     -0.187710   -0.76986800    0.42425300
Se    1.53552000    4.03365000    8.82382000      0.239468    0.68172900   -0.73288900
Se    1.29413000    4.24507000   18.10759000      0.105293    0.35822000    0.57422600
Se    1.54110000    9.92083000    8.38615000      0.314362    0.39704100   -0.13194500
Se    1.31260000   10.37203000   18.46394000      0.504590   -0.11304100   -0.44450100
Se    1.58657000   16.04052000    8.36428000      0.365859    0.45551500   -0.31552000
Se    1.63039000   16.09272000   18.69767000     -0.137061    0.36662800   -0.08291200
Se    1.69569000   21.64014000    8.36887000     -0.051010   -0.50620300    0.00007200
Se    1.05796000   21.83819000   18.52823000     -0.153518    0.19945900    0.02936100
Se    7.26571000    3.82230000    8.70785000     -0.097227    1.30452200   -0.24516200
Se    7.29748000    4.61870000   18.31579000     -0.546758   -0.78590000    0.41019600
Se    7.43037000   10.29667000    8.84939000     -0.398514    0.30842600    0.17167900
Se    7.20281000    9.91427000   18.02114000     -0.381745   -0.64908300    0.48177500
Se    7.25926000   16.17698000    8.52527000      0.421041   -0.06567900   -0.26141700
Se    7.11401000   15.75933000   18.12288000     -0.462191    0.11098100    0.63707100
Se    7.37123000   21.67786000    8.51051000      0.070575    1.03679200    0.03292300
Se    7.37825000   21.85987000   18.24576000     -1.625230   -0.44808200    1.52585700
Se   13.21803000    3.96056000    8.31281000     -0.737983    0.42307600    1.02535400
Se   13.49332000    4.27385000   18.46600000     -0.651731    0.64284300    0.10467400
Se   12.85144000   10.00552000    8.21293000     -0.685924    0.41509000    1.21236400
Se   13.28696000    9.93500000   18.35946000     -0.193473    0.59954000   -0.27793100
Se   12.99866000   15.56557000    8.50835000     -0.225141    1.15632600    0.28629000
Se   13.13728000   15.97155000   18.48248000     -0.089721   -1.49884800    0.07659800
Se   12.86593000   21.82815000    8.06250000     -0.172837   -0.40448400    0.50012600
Se   13.27321000   21.83263000   18.42135000     -0.477490    0.40407500   -0.05474500
Se   18.78887000    4.35244000    8.60738000     -0.021919    0.91508800    0.52399800
Se   19.09262000    4.23318000   18.49413000      0.166728   -0.42761000   -0.49667700
Se   18.37928000   10.30559000    8.29518000      0.694485   -0.14385700   -0.27526900
Se   19.01661000   10.47055000   18.36595000      0.315115   -0.52411700   -0.62976200
Se   18.74171000   16.12632000    8.38704000      0.993712   -0.51925600   -0.18202300
Se   19.19700000   15.96668000   18.68913000     -0.225264    0.62984400   -0.82762900
Se   18.53307000   21.99158000    8.46428000      0.071328    0.57492600    0.19391800
Se   18.89719000   21.81684000   18.62688000      0.461918   -0.11646800   -0.55651800
Se    4.54702000    1.42919000    8.43358000     -0.321798    0.20492200   -0.28400500
Se    4.06136000    1.38679000   18.20811000      0.243590   -0.45187700   -0.07981000
Se    4.44843000    7.23758000    8.41723000      0.098834   -1.64670600    0.26121600
Se    3.99867000    7.50899000   18.39283000      0.162826   -0.40760700   -0.16644900
Se    4.01077000   12.83434000    8.91158000      1.483636    0.49110600    0.43641900
Se    4.67231000   13.11985000   18.21075000     -0.500453   -1.14407000    0.07510200
Se    4.39021000   19.05401000    8.72954000     -0.190824   -0.82731600   -0.15408800
Se    4.47292000   19.16817000   17.88508000      0.361032   -0.87128700    0.82191000
Se   10.29909000    1.40993000    8.95229000     -1.136464    0.47959200   -1.15297300
Se   10.27258000    1.73655000   18.20921000     -0.199269   -0.88207000    0.08421200
Se   10.10034000    6.67329000    8.68715000     -0.402358    0.09362400   -0.36519000
Se   10.42962000    7.11747000   17.75824000      0.733418    0.53909500    0.64292700
Se   10.23430000   13.10460000    8.42649000      0.331727    0.44447800    0.49577400
Se   10.46445000   12.75149000   18.21197000     -0.443255    0.13695700    0.21092300
Se   10.35560000   18.88318000    8.52955000      0.092971   -0.19629000    0.01874700
Se   10.12136000   18.70977000   18.21880000      0.286253    0.31726700    0.77084100
Se   15.69578000    1.49352000    8.18824000      0.282589    0.34825800    0.59101100
Se   15.98740000    1.52201000   18.77873000     -0.046991   -0.15222500   -0.90733500
Se   16.12506000    7.26425000    8.51724000     -1.332434    0.04398600   -0.87716900
Se   16.41445000    7.25416000   18.05744000     -0.881485    0.18907800   -0.06752300
Se   15.32705000   13.12460000    8.77480000      0.307797   -0.42721300   -0.30090900
Se   15.72104000   13.23481000   18.29040000      0.681156   -0.28483800    0.29815000
Se   15.65414000   18.86122000    8.20647000     -0.326001    0.13659800   -0.20993400
Se   15.94974000   18.90615000   18.50829000      0.506612   -0.79926400    0.11004100
Se   21.92005000    1.31573000    8.56091000      0.995117    0.48293500    0.67457200
Se   21.66943000    1.72474000   18.33488000     -0.541242   -0.12460100   -0.49713700
Se   22.06350000    7.23694000    8.37067000     -0.244041    0.08362200    0.17728300
Se   21.71166000    7.23871000   18.08383000      0.103218   -0.92345300    0.50147500
Se   22.01101000   12.94886000    8.47122000     -0.258747    0.15651400    0.02382600
Se   21.71435000   13.34529000   18.12332000      0.405757   -0.20775500    0.33934800
Se   21.98671000   19.24081000    8.42634000     -0.651341   -0.91961000   -0.31952000
Se   21.96177000   19.09993000   18.09899000     -0.586496   -0.94285900    0.08155200
Se    1.57344000    1.35322000    5.84936000      1.557126    0.02310800    0.57690500
Se    1.35854000    1.47196000   15.79507000      0.956679    0.02983500   -0.12788700
Se    1.47547000    7.41512000    6.37631000      0.448495   -0.86072800   -0.04687900
Se    1.02359000    6.87781000   15.75605000      0.315660    0.45371700   -0.24563200
Se    2.13086000   12.65538000    6.00322000     -0.623106    1.09481600   -0.64760800
Se    1.46986000   13.22472000   15.66912000     -0.773670   -1.44554200    1.16775900
Se    1.64093000   18.92007000    5.75117000      0.214502   -0.33389100    0.66732800
Se    1.27687000   18.60905000   15.59432000      0.740967    0.38005400    0.45866600
Se    7.26433000    1.24689000    6.21672000     -0.460758    0.82978700   -1.03117800
Se    6.92457000    1.35382000   15.81576000      1.131808    0.30456300   -0.11851600
Se    6.91626000    6.84232000    5.96514000      0.796252    0.36647800    0.12090700
Se    7.15717000    7.13759000   15.86754000      0.469447    0.32495500   -0.50308000
Se    7.26331000   12.60133000    5.64088000     -0.023594    0.27431400    0.75508800
Se    7.33561000   13.04058000   16.18703000     -1.191166    0.99984200   -0.71448300
Se    7.20968000   18.86075000    5.94539000     -0.555953    0.06719400    0.19774200
Se    7.34022000   19.02124000   16.06753000     -0.340653   -1.41125400    0.59585200
Se   12.77232000    1.59013000    6.00646000      0.507220   -0.34432000   -0.32663500
Se   13.42435000    1.11379000   15.73948000     -0.288520    0.60174000   -0.02655500
Se   13.11640000    7.26151000    5.99268000      0.170085   -0.77195600    0.79212300
Se   13.57004000    7.47243000   15.57713000     -0.089581   -0.88061500    0.91077500
Se   12.52474000   13.02582000    5.84113000      2.240093    0.31422400    0.18808500
Se   12.84840000   12.78792000   15.54830000      0.505175    0.81214100   -0.05503400
Se   12.74010000   18.48746000    5.73468000      1.238579    0.19333600    0.27484100
Se   13.35625000   18.90061000   16.20936000     -0.188689    0.58906300   -0.68126600
Se   18.87106000    1.89258000    6.21326000      0.309023   -0.27075400   -0.11602200
Se   18.80527000    1.64709000   15.56845000      1.370758   -0.41561400    0.70061700
Se   18.69385000    7.31060000    6.36488000      1.037726    0.15465700   -0.27008100
Se   18.74793000    7.16928000   15.88289000      0.236373    0.58124200   -0.35474000
Se   19.09783000   13.31866000    6.32654000      0.036844   -0.18512600    0.11552600
Se   18.88671000   13.27664000   15.57121000     -0.562424   -0.79502800    0.63023300
Se   18.81678000   18.83193000    6.12988000     -0.176789    1.00880200   -0.50178600
Se   18.44059000   19.06412000   16.16239000     -0.323541   -0.59950400    0.36669700
Se    4.52954000    4.45235000    5.96057000     -0.181316   -0.12598000    0.14077900
Se    4.47601000    4.31033000   15.97444000     -0.536263    0.70880200    0.38080400
Se    4.89035000    9.84233000    6.05262000     -0.552552    0.05615600   -0.03230500
Se    3.92615000    9.92758000   15.81512000      0.002625    0.19647500    0.29972000
Se    4.69039000   16.14023000    6.08363000      1.063940    0.22710400    0.26377900
Se    4.23478000   15.98313000   16.17444000      0.437020   -0.61948800   -0.69829400
Se    4.74046000   21.56454000    6.17288000     -0.650759   -0.12290500   -0.66420800
Se    4.06380000   21.69284000   15.67662000      1.208736    0.93153600    1.15200300
Se    9.90985000    4.01691000    6.40537000      1.432507   -0.75703100   -1.38885400
Se   10.13860000    4.10022000   15.74716000     -0.558542   -0.36545900   -0.15717600
Se    9.90873000    9.76197000    6.43333000      0.611908    0.37707900    0.36784200
Se   10.24151000    9.96659000   15.95233000     -1.009505    0.36363500    0.09773600
Se   10.00727000   15.90233000    5.74131000      0.414861    0.63289700    1.01844300
Se   10.35710000   16.14263000   15.95089000     -0.549212   -0.81144000   -0.37275300
Se   10.14233000   21.76217000    6.04996000      0.048553   -0.69665900   -0.76192000
Se   10.13962000   21.86188000   16.21446000      0.336461   -0.63224800   -0.76535100
Se   15.90210000    4.11429000    5.94593000      0.959448    0.87990300    0.68728000
Se   16.25557000    4.15648000   16.02232000      0.567409    0.61258600    0.46467200
Se   15.74294000   10.55894000    5.84251000     -0.174593   -0.55600800   -0.12195600
Se   16.31205000   10.60514000   15.70472000     -0.205239    0.94213100    0.93015600
Se   16.18498000   15.84904000    6.01909000     -0.917510   -0.07357100    0.11920300
Se   15.92850000   15.72277000   15.99273000      0.390736    0.54074300    0.27907500
Se   15.89122000   21.68855000    5.86299000     -0.598918   -0.14517100   -0.12950700
Se   16.39259000   21.90299000   15.94112000     -0.085994   -0.24385000    0.05966200
Se   21.88673000    4.36715000    6.28479000     -0.310553    0.47560900    0.01382200
Se   22.02100000    4.40271000   15.70324000      0.076745    0.11665200    0.60460800
Se   21.65288000   10.00762000    6.14525000      1.032574    0.75820800    0.61690100
Se   21.75048000   10.02673000   16.29767000      0.200329   -0.31218800   -0.63773500
Se   22.03504000   16.37582000    6.04746000     -0.242082   -0.02972400    0.46435200
Se   21.82080000   16.44083000   15.81440000     -0.801710   -0.95325500   -0.33432500
Se   21.56198000   22.21085000    5.90293000     -0.245775   -0.17948800    0.47834700
Se   21.48362000   21.89418000   15.72178000     -1.151582   -0.24428500    0.32625400
Se    4.26483000    1.23899000    3.21668000      0.114237    0.63822400    0.55245800
Se    4.34425000    1.51705000   13.21414000      0.659179   -0.41499800   -0.10132500
Se    4.00173000    7.13853000    3.35484000      0.789587    0.07178600   -0.17429100
Se    3.99449000    7.29263000   13.34532000     -0.172548   -0.19560800    0.35332400
Se    4.47900000   13.11088000    3.46303000     -0.088923   -0.20391100    0.19468700
Se    4.85141000   13.12582000   13.60746000     -0.979316    0.38749300    0.63876500
Se    4.09742000   19.01533000    3.39787000     -0.023075   -0.66967500    0.14539100
Se    4.17056000   18.82711000   13.39351000      1.999490   -2.01194800   -1.28860700
Se   10.33175000    1.53863000    3.45997000     -0.816733   -0.01193700    0.64846500
Se   10.19872000    1.03349000   13.74310000      0.289069   -0.02391400   -0.21683900
Se   10.27615000    7.03633000    4.02440000     -0.033124   -0.04209100   -0.67609600
Se   10.39184000    7.06365000   13.86206000      0.268382    0.41813500   -0.98544800
Se   10.23401000   12.71221000    3.65314000     -0.322143    1.54282500   -0.16327200
Se    9.89366000   12.93230000   14.01655000      0.945835    0.76553100   -1.18914200
Se   10.25758000   18.76036000    3.99286000     -0.115603    1.55526500   -0.85050200
Se   10.27984000   18.71180000   13.49407000      0.577985    0.16212300   -0.35743300
Se   15.90385000    1.63713000    3.78296000      0.148924    0.14297200   -0.19564400
Se   16.05643000    1.92527000   13.26782000     -0.159465   -0.57015400    0.18036100
Se   16.36546000    7.43323000    3.71967000     -0.881458    0.33435700   -0.20472800
Se   16.31894000    7.38777000   13.33069000     -0.503666    0.71732500    0.61240400
Se   15.97505000   13.03990000    3.56889000      0.126278   -0.56672700   -0.11015700
Se   16.13029000   13.27142000   13.23301000     -0.480833   -0.10472500    0.38858500
Se   16.12746000   18.83463000    3.88966000     -0.795015    0.42504600   -0.10775300
Se   16.10264000   19.16382000   13.53343000      0.973873   -0.47211500   -1.46083400
Se   21.82865000    1.70454000    3.69395000     -0.443903   -1.24480000    0.35159900
Se   22.01820000    1.21291000   12.97870000      0.062295    0.83279700    0.58018700
Se   21.90057000    7.22299000    3.89399000     -0.556057    0.68336000   -0.30826400
Se   21.54111000    7.00131000   13.59947000     -0.407456    0.78959000    0.40861900
Se   21.68222000   13.21188000    3.72403000     -0.419837   -1.10040200    0.65934500
Se   21.88576000   13.27517000   13.38131000     -0.207862    0.51276700   -0.09189200
Se   21.83143000   19.10298000    4.07560000      0.678509    0.04077600   -0.82388400
Se   21.49663000   18.84131000   13.73726000      0.031998    0.54681400   -0.44304600
Se    1.70720000    4.37219000    3.67559000     -0.706194    0.11099600   -0.34556500
Se    1.61421000    4.28384000   13.28211000     -0.101862    0.39145400    0.05251600
Se    1.43012000    9.93688000    3.98080000     -0.478292    1.02464200   -0.77551700
Se    1.09729000   10.19367000   13.33450000     -0.403864   -1.07267100    0.01754500
Se    1.57873000   16.02694000    3.73147000      0.320823   -0.37779100    0.53137100
Se    1.64910000   16.02259000   13.03564000      0.416594   -0.40623200    0.82803100
Se    1.25962000   22.28593000    3.85612000      0.641307   -0.56780500    0.21969800
Se    1.49967000   21.55885000   13.13926000     -0.802478   -0.15182600   -0.02305800
Se    7.22602000    4.26792000    3.47536000     -0.325757   -0.02794900    0.15667500
Se    7.67797000    4.24698000   13.08156000     -0.928627    0.66010600   -0.27360000
Se    7.26663000    9.87729000    3.61488000      0.041958    0.11166700   -0.02296500
Se    7.11887000   10.05228000   13.67239000      0.720039    0.19779700    0.08074600
Se    7.15780000   15.98338000    3.42996000      1.058895   -0.15604800    0.67680600
Se    7.45232000   16.24454000   13.50239000      0.465719    0.55617500    0.77241900
Se    7.34842000   21.86609000    3.14628000     -0.430396   -0.54301400    0.34256200
Se    7.28343000   21.53497000   13.76358000      0.050175    0.56070700   -0.17193700
Se   13.26853000    4.61627000    3.35074000     -0.164998    1.03791800    0.18267200
Se   12.91086000    4.25664000   13.62646000      0.314011    0.15939100    0.37259500
Se   12.74559000   10.05739000    3.77602000     -0.012568   -0.23995800   -0.64738600
Se   13.27027000   10.15383000   13.34164000     -0.401161    0.37717900   -0.15244800
Se   13.15041000   15.84253000    3.56658000      0.243588   -0.08770800    0.07729300
Se   13.06049000   16.03370000   13.39276000      0.462652   -0.07562500    0.46643800
Se   13.07823000   21.92257000    3.37095000      0.881046   -0.07085800    0.91077400
Se   13.08472000   21.77939000   13.93097000     -0.460252    0.01784500   -0.57264900
Se   18.90097000    4.88430000    3.90088000      0.154923   -1.46818900   -0.30564200
Se   19.36092000    4.36396000   13.61054000     -0.403825   -0.45464900   -0.77006200
Se   18.66891000   10.26260000    3.86854000      0.281318   -0.04032300   -0.50906700
Se   19.13482000   10.39598000   13.21714000      0.524004    0.14300100    0.83456700
Se   18.86693000   15.96877000    4.07189000     -0.612484    0.51062900   -0.70468400
Se   18.84961000   16.30195000   13.40837000      0.345798   -0.13281500    0.04991600
Se   18.89748000   21.89926000    3.39802000     -0.638362   -0.46011500    0.17207300
Se   19.03790000   21.93488000   12.98090000     -0.717434    0.16547600   -0.25096000
