384
23.23808000 23.23808000 19.51320000
Ge    5.79713000    5.57032000    9.66820000      0.179036    0.62893600    0.55718600
Ge    5.36995000    5.90907000   19.23541000      1.540677    0.77344000    0.41416500
Ge    6.05737000   11.93113000    9.96490000     -1.298297   -0.41918900    1.21902400
Ge    5.98949000   11.40942000   19.43353000      0.839889   -0.46301500    0.35285700
Ge    5.73489000   17.50680000    9.82453000      0.595380   -1.39417400    0.91799800
Ge    5.85792000   17.49612000   19.37613000     -0.444936   -0.63045200   -1.05044600
Ge    5.88947000    0.10845000    9.75524000      1.166810   -1.86631300    0.22553000
Ge    5.72215000    0.05457000    0.06103000     -0.106837    0.03630000   -0.97548100
Ge   11.84125000    5.07708000    9.91681000     -0.329040    3.14190400   -0.11249700
Ge   11.75724000    5.90195000   19.42737000      1.233402   -0.02188400   -0.66292500
Ge   11.53375000   11.42639000    9.92345000     -0.535063   -0.25461500   -0.91399900
Ge   11.54535000   11.34522000    0.09920000      1.038326   -1.05354100   -0.43190900
Ge   11.66367000   17.23612000    9.75651000     -0.020539   -0.35807000    0.24507000
Ge   11.46164000   17.23541000   19.47595000      0.045642    0.32732000    0.94303800
Ge   11.85915000   23.22594000    9.91318000      0.052223   -0.26396300   -0.93128900
Ge   11.58652000    0.24957000   19.47348000      1.737552   -0.95761200    0.42970700
Ge   17.66487000    5.94803000    9.94435000     -1.277698    0.80830000    0.43942300
Ge   17.74349000    5.86392000    0.02330000     -0.381843   -0.18618600   -0.11702500
Ge   17.15567000   11.74787000    9.67875000     -0.245833   -0.76317900    0.85914800
Ge   17.28712000   11.72522000   19.37207000      0.688798    0.07132700    0.39059000
Ge   17.25364000   17.44349000    9.45771000     -0.357233    1.80429000   -0.17406400
Ge   17.57706000   17.45049000    0.10907000      0.740165   -0.29663400   -0.96899000
Ge   17.05199000    0.23483000    9.74053000      0.185469   -0.20045300    0.15983800
Ge   17.62066000   23.20406000    0.38352000     -1.356993    0.83754700   -0.44863300
Ge   23.12217000    5.61500000    9.63317000      0.109350    0.34843500    0.64102800
Ge   23.19763000    5.64805000    0.01914000     -1.814574    1.55396500   -0.29330700
Ge    0.23267000   11.52185000    9.70071000     -0.039697   -0.38523000    0.26208100
Ge   23.01845000   11.77958000    0.15461000      0.556379    0.65097900   -1.08129100
Ge    0.22038000   17.59516000    9.52719000      0.051297    1.06918200   -0.25162900
Ge   23.15048000   17.58067000    0.03661000      0.020884   -1.06175100    0.75213500
Ge    0.18695000   22.80063000    9.64777000     -1.209492    2.03177400    0.27165600
Ge   23.00101000    0.34709000    0.31933000      0.100142   -0.82973300   -0.80255000
Ge    2.85057000    5.62899000    7.40405000     -0.231830    0.98511600   -0.16118800
Ge    2.62460000    5.89567000   17.00809000      1.171657   -0.37714300    0.74731200
Ge    3.37229000   11.14234000    7.46395000     -0.642512   -0.32332300   -0.90498700
Ge    2.89326000   11.69700000   17.14707000     -0.509113   -0.05365900   -0.40228400
Ge    3.22132000   17.53483000    7.30917000     -0.877612    0.89037500   -1.13159300
Ge    2.87507000   17.50601000   17.22417000      0.209457   -0.63932700   -0.19872900
Ge    3.25166000   23.12728000    7.13456000     -0.640556   -0.04604100   -0.81789000
Ge    2.58132000   23.02774000   16.99730000     -0.391182    0.69225800    0.90521900
Ge    8.45013000    5.51236000    7.31007000      0.811138   -0.21964600    1.09325800
Ge    8.69988000    5.71648000   16.84553000      0.074311   -0.10132700    0.61943600
Ge    8.59933000   11.71887000    7.42911000      0.704567   -0.89249900   -1.39130500
Ge    8.77792000   11.38751000   17.28444000     -0.088424    0.33234400   -1.17320500
Ge    8.77697000   17.65413000    7.29583000     -0.734047   -1.12694300   -0.64556000
Ge    8.70464000   17.22728000   17.14039000     -1.453602    0.76934000   -0.21218100
Ge    8.90792000   23.17318000    7.32376000     -0.060515    0.29016300    0.49041300
Ge    8.60612000    0.17538000   17.16254000      0.171379   -1.19585300   -0.34716700
Ge   14.49463000    5.66307000    7.22864000      0.386655    0.76084200    0.37529500
Ge   14.73058000    5.76674000   17.09081000      0.882694    1.92065800   -1.23115700
Ge   14.07127000   11.72082000    7.22779000      0.782703   -1.55976900   -0.52471700
Ge   14.41972000   11.58715000   16.97482000      1.856184   -0.27779600    0.32637600
Ge   14.35743000   17.06092000    7.23494000      0.417491   -0.50643500   -0.78258100
Ge   14.57840000   17.31615000   17.32972000     -0.051696   -0.01990300   -0.95312700
Ge   14.55176000   23.14608000    6.99057000     -0.830854    1.74307900    0.27029100
Ge   14.79961000    0.04369000   17.25243000      0.985809    0.87273600    0.23024500
Ge   20.27888000    5.74363000    7.50368000     -0.293317    1.40602500    0.01537400
Ge   20.21591000    5.75624000   17.00607000      0.992141   -0.53083200   -0.53213300
Ge   20.32273000   11.59418000    7.52100000      0.257623    0.19727500   -0.96946200
Ge   20.32507000   11.88744000   16.87293000      0.252727   -0.43793600    0.56701000
Ge   20.42862000   17.54497000    7.40855000      1.139865    0.65648800   -0.63928100
Ge   20.27607000   17.55156000   16.99434000     -0.948594    0.09375100    0.70896800
Ge   20.17512000    0.29908000    7.44147000      0.099384    0.23833500   -0.26555900
Ge   20.08254000    0.25644000   17.16043000      0.053863   -0.58832600    0.95026800
Ge    3.17663000    2.94913000    4.70064000     -1.748206   -0.33141600    0.48556400
Ge    2.99476000    2.82509000   14.65638000      0.530165   -0.04985600    0.15829900
Ge    3.03761000    8.59586000    5.03089000      0.421157   -0.21816600   -0.85561000
Ge    2.29160000    8.57731000   14.58463000      1.631510   -0.07849300    1.21803300
Ge    3.26040000   14.41803000    4.86961000     -0.279532    1.80684900    0.72624300
Ge    2.91108000   14.67415000   14.73318000      0.407575   -1.19050600   -0.55691500
Ge    2.92122000   20.67986000    4.70798000      0.306408   -1.09782700    0.06643200
Ge    2.74047000   20.09848000   14.55198000      0.287619    1.14521300   -0.77373500
Ge    8.53662000    2.77408000    4.83066000      0.407456   -0.42138200    0.04700900
Ge    8.46332000    2.60841000   14.42291000      0.761006    0.88269400    0.82290400
Ge    8.51950000    8.29127000    5.03854000      0.746692    1.43059100   -0.49145100
Ge    8.77431000    8.52401000   14.68331000     -0.272626   -0.28276200    0.45436500
Ge    8.51908000   14.30915000    4.71416000      0.265307    0.71618100    0.05108300
Ge    8.62527000   14.72951000   15.00925000      0.335394   -0.30589400   -0.58940600
Ge    8.59342000   20.37620000    4.68225000      0.296332    0.08816700   -0.27355100
Ge    9.06734000   20.15724000   14.84174000      0.010359    0.79859400   -1.05539900
Ge   14.25244000    3.00452000    4.77920000     -0.204227   -1.41887300    0.66826300
Ge   14.63375000    3.06349000   15.05389000     -0.097014   -0.41578400   -2.23544800
Ge   14.48677000    8.83708000    4.85081000      0.356600   -0.97855600   -0.37711800
Ge   14.99211000    9.04039000   14.59301000      0.546767   -0.09339500   -0.89484300
Ge   14.47904000   14.35906000    4.95711000      0.649669    0.71929000   -0.30617900
Ge   14.38605000   14.39490000   14.61946000      1.090054    0.51434300    0.17544800
Ge   14.33614000   20.21352000    4.67637000     -0.804729    0.00720000    0.48135200
Ge   14.71265000   20.40681000   14.90324000      1.759255    0.27518400   -0.15622100
Ge   20.30879000    3.30412000    4.82403000      0.685910   -1.68519200    1.43486200
Ge   20.78386000    2.59016000   14.54838000      0.217902    0.15316200   -0.40878600
Ge   20.18406000    8.65655000    4.92703000      0.184678    0.86907300    0.51628700
Ge   20.11996000    8.78430000   14.72759000      1.547664   -0.32720900    0.54290700
Ge   20.38525000   14.80234000    5.14738000      1.132619   -0.03243900   -0.72869600
Ge   20.31696000   14.65236000   14.51638000     -0.152387    0.25655000    0.23285400
Ge   20.06286000   20.52161000    4.84991000     -0.203721    0.24633700    1.29070400
Ge   19.88412000   20.52267000   14.70756000      0.006490   -0.85598800   -0.43960800
Ge    5.60720000    2.81707000    2.17267000      0.938576    0.80843100   -0.11842200
Ge    5.95466000    2.82767000   12.04587000     -0.407467   -0.54566700   -0.52475800
Ge    5.63342000    8.67502000    2.20995000     -0.209263   -0.25384000    0.31195600
Ge    5.65885000    8.73424000   12.47592000      0.130058    0.07787300   -0.62456600
Ge    5.93330000   14.47476000    2.14913000     -0.367963   -0.34157600   -0.08064200
Ge    5.93326000   14.66757000   12.34012000      0.240163    0.28240000    0.39814500
Ge    5.82822000   20.25811000    2.14192000     -1.343321    0.52151800    0.34875000
Ge    5.77826000   20.29071000   12.24766000     -0.116956    1.03269500    0.16353000
Ge   11.59310000    3.20154000    2.42969000      0.544799   -1.02307700    0.49968400
Ge   11.64728000    2.53917000   12.44156000      0.622798    0.75453200    0.35157000
Ge   11.41438000    8.43314000    2.44130000      1.006336    0.67627200    0.86414700
Ge   11.60095000    8.70421000   12.35713000      1.062905   -1.42974200    0.43716600
Ge   11.82854000   14.28837000    2.48107000     -0.412220    1.13628400   -0.13471600
Ge   11.34982000   14.43857000   12.53323000      0.390002    0.13351500   -0.72188700
Ge   11.80465000   20.27322000    2.41349000     -0.147729   -0.75252800    0.74073500
Ge   12.06340000   20.38108000   12.44964000     -2.061333   -1.98971900   -1.69144800
Ge   17.37054000    3.29930000    2.78297000     -0.043201   -1.33491000   -0.19081700
Ge   17.72733000    3.09157000   12.25778000      0.354645    0.96438200   -0.41842800
Ge   17.49005000    8.80532000    2.14618000     -0.598056    0.69113000    0.27859600
Ge   17.65906000    8.89952000   12.13653000     -0.312562    0.94016200   -0.39290100
Ge   17.35258000   14.54374000    2.53910000      2.256125    0.84893200   -0.00629800
Ge   17.34462000   14.85388000   12.04697000      0.842060   -0.57289700    0.85026400
Ge   17.25027000   20.41341000    2.34732000     -1.136582    1.43868600    0.54694400
Ge   17.18988000   20.70083000   11.94736000     -0.201410   -0.69410000    0.69734000
Ge    0.00861000    3.12667000    2.46419000      0.254703   -0.00740200    0.13531800
Ge    0.21324000    2.78959000   11.95741000     -0.412023    0.13999500   -0.06014900
Ge   23.22152000    8.59044000    2.51618000      0.347905    1.62383200   -0.25727900
Ge   23.22613000    8.46475000   12.20439000     -1.206140   -0.41486200   -0.34069600
Ge   23.09497000   14.76971000    2.63110000      0.837244   -0.27619200    0.36866000
Ge    0.13758000   14.72078000   11.88346000     -0.624675   -0.62596500    1.04469300
Ge   22.90025000   20.80035000    2.74326000     -0.546883   -0.55468000   -0.89827900
Ge   22.86742000   20.15268000   12.19181000      0.643525    1.58101500   -0.04198600
Se    1.46371000    1.57483000    1.40152000     -0.193960    0.05413400   -0.28654800
Se    1.62702000    1.18133000   10.82076000     -0.093621    0.17018500   -0.15392300
Se    1.30716000    6.95771000    1.43929000      0.578362    0.27014000   -0.12211500
Se    1.42890000    6.94320000   11.00260000     -0.239563    0.04078200    0.15398100
Se    1.22814000   13.19262000    1.41954000      0.271467    0.02360500   -0.14648900
Se    1.51864000   12.92806000   11.18957000      0.183030    0.02077900   -0.24979600
Se    1.02424000   19.23555000    1.40923000      0.196878   -0.10734100   -0.07333300
Se    1.38259000   19.09169000   11.02366000      0.130199   -0.32043400   -0.43642000
Se    7.32201000    1.40534000    1.35872000     -0.701096   -0.34081700   -0.64696800
Se    7.56088000    1.45533000   10.78779000     -0.807227   -0.06264600    0.50059600
Se    7.07530000    7.18333000    1.12620000     -0.839010   -0.55984800   -0.73618300
Se    7.12122000    7.24736000   11.09125000     -0.437949   -0.26599400   -0.02652400
Se    7.45589000   12.92012000    1.08758000      0.144532   -0.11070400   -0.09554200
Se    7.53897000   13.50302000   10.98204000     -0.373627   -0.17827300   -0.03086500
Se    7.29105000   18.56023000    1.39512000      0.575274    0.03890900   -0.29397700
Se    7.24882000   19.00599000   10.84762000      0.150890    0.13627600    0.57918100
Se   13.09531000    1.70535000    1.25609000     -0.478430   -0.20502500   -0.35288100
Se   13.37219000    1.43320000   11.08206000     -0.493624    0.11607100    0.26312100
Se   13.25471000    7.44367000    1.24166000     -0.976338   -0.67355500   -0.33697500
Se   13.06965000    7.07336000   11.03464000     -0.707750   -0.02264600   -0.20830200
Se   13.07509000   12.74920000    1.14184000      0.560093    0.31661800    0.49068400
Se   12.83419000   13.09067000   11.02630000      0.063975    0.12209000    0.52180800
Se   13.00858000   18.58171000    1.27167000      0.264382    0.06421600   -0.09608200
Se   13.19239000   18.94821000   10.70246000     -0.028071   -0.01978600    0.46465800
Se   18.82364000    1.55849000    1.70883000      0.316089    0.51724600    0.09683500
Se   18.83244000    1.47384000   10.84692000     -0.474998   -0.12497100   -0.03475100
Se   19.18672000    7.38977000    1.22884000     -0.210569    0.09556000   -0.35814400
Se   19.17351000    7.61425000   10.92942000      0.341493   -0.70262500   -0.82690300
Se   18.72893000   12.76909000    1.61483000     -0.203349    0.44436300   -0.69650400
Se   18.61325000   13.40664000   10.57947000      0.565167   -0.24465700    0.12547500
Se   18.80964000   19.16098000    1.23752000      0.998351   -0.76606700   -0.55976600
Se   18.45673000   19.08859000   10.76624000      0.804159   -0.26893100   -0.38698200
Se    4.12344000    4.24065000    0.85813000      0.012114   -0.36218600    0.29322600
Se    4.34704000    4.07576000   10.83066000     -0.251078    0.15059700    0.17021200
Se    4.35592000   10.49302000    1.27026000     -0.382103   -0.83801800    0.34361900
Se    4.37192000   10.35755000   11.29894000      1.057163    0.44441200   -0.40969100
Se    4.43383000   15.76592000    0.79995000     -0.242165    0.15526000    0.33803100
Se    4.30243000   15.99148000   11.16833000      0.495192    0.27790400   -0.56134900
Se    4.21443000   21.57936000    0.66887000      0.750622   -0.38759300    1.13114200
Se    4.25083000   22.00634000   10.88662000      1.159699   -0.59521600    0.74048600
Se   10.25650000    4.44182000    0.98862000     -0.968404    0.37736600   -0.14782100
Se   10.24643000    4.17007000   11.28374000     -0.392070   -0.71414100    0.33018600
Se   10.07419000    9.71371000    0.94283000     -0.625314    0.01190700    0.20469600
Se    9.98297000   10.05439000   11.30811000      0.121826    0.47500100   -0.54612300
Se   10.16456000   15.69340000    1.20162000      0.255228   -0.36244900    0.28251300
Se   10.03908000   15.84540000   10.99470000      0.224054    0.36446300    0.26534400
Se   10.47826000   21.82918000    1.33125000     -1.639469    0.60389300   -0.87291000
Se   10.45642000   21.76673000   11.08864000      0.334455   -0.52177500    0.70363700
Se   16.07109000    4.76343000    1.52095000      0.123880    0.40793400   -1.00016200
Se   16.15651000    4.79832000   11.51710000      1.140739   -0.16883500   -0.89296300
Se   15.78622000   10.28902000    0.96803000      0.793448   -1.29371100    0.69078500
Se   15.88792000   10.33770000   11.28435000      1.047664    0.14175500   -0.67359200
Se   16.14098000   16.02630000    1.22703000     -1.022025    0.06815700   -0.00989300
Se   15.90764000   16.11260000   10.78657000     -1.547171    0.10794200    0.10230500
Se   15.72299000   22.05027000    1.26865000      0.904297   -0.82200300    0.45813700
Se   15.48143000   21.91683000   10.90985000      0.498668    0.59345600   -0.34913300
Se   21.65645000    4.28810000    1.16662000     -0.117606   -0.00275400    0.13076300
Se   21.62826000    4.21889000   10.91492000      1.036188    0.00189100    0.09590300
Se   21.70348000   10.26178000    1.34577000     -0.144689   -0.96251700    0.51894200
Se   21.91180000    9.97278000   10.70084000      0.145142   -0.01440600    0.25945300
Se   21.58189000   15.95826000    1.29125000      0.426128    0.84416100   -0.45731200
Se   21.96838000   16.29389000   10.76069000     -0.586306   -0.65121900    0.29108600
Se   21.31509000   22.28592000    1.46450000      1.013129   -0.38351200    0.31333100
Se   21.62756000   21.90382000   11.00295000      0.484576   -0.50985500   -0.36160800
Se    1.66796000    4.18201000    8.85426000     -0.190533   -0.33822400   -0.36124000
Se    1.20392000    4.28445000   18.23159000      1.218191   -0.59950900   -0.68990300
Se    1.54294000    9.93365000    8.46998000      0.171940   -0.02327600   -0.08932700
Se    1.42519000   10.35728000   18.45525000     -0.561411    0.12657500    0.25184400
Se    1.63895000   16.11415000    8.31652000     -0.224310   -0.32750500    0.37597200
Se    1.79342000   15.98039000   18.78009000     -0.878198    1.19845100   -0.22958600
Se    1.72236000   21.71584000    8.32271000      0.180078   -1.43526900   -0.45692600
Se    0.99241000   21.90628000   18.49614000      0.304111   -0.09245100   -0.22302500
Se    7.29435000    3.91710000    8.76394000     -0.146655    1.06984000   -0.50347200
Se    7.22344000    4.54129000   18.30441000     -0.365909   -0.32328000    0.08619400
Se    7.42127000   10.40105000    8.92691000     -0.179623   -1.22039400   -0.09606300
Se    7.16921000    9.86962000   17.99347000     -0.226263   -0.29931600    0.74746900
Se    7.27483000   16.19519000    8.59180000      0.611924   -0.29602700   -0.41266800
Se    7.08894000   15.70810000   18.07766000      0.157915    1.14420500    0.37663400
Se    7.42878000   21.73238000    8.49395000     -0.680778    0.34885100    0.39058600
Se    7.17534000   21.87567000   18.24485000     -0.098675    0.19934100    0.31152300
Se   13.09691000    3.94868000    8.38418000      0.656716   -0.28565700   -0.67800700
Se   13.61317000    4.35670000   18.36805000     -1.996396   -0.73915400    1.49997100
Se   12.77965000    9.97792000    8.25447000     -0.266510    0.26899100    0.71958100
Se   13.32231000   10.03297000   18.31441000     -0.794234   -0.32219400    0.34921900
Se   12.97348000   15.49543000    8.58340000      0.030582    1.26197600    0.01315900
Se   13.14980000   15.93702000   18.55681000      0.187205   -1.05787000   -0.30656000
Se   12.93056000   21.84604000    8.07613000     -0.318302   -0.19306400    0.97827200
Se   13.33496000   21.91558000   18.39503000     -1.367852    0.01393000    0.55816200
Se   18.66566000    4.33876000    8.58730000      0.528356   -0.39379500   -0.04335000
Se   19.16224000    4.18902000   18.39593000     -0.768411    0.06238600    0.48652100
Se   18.38925000   10.30775000    8.25844000      0.468485    0.04928100    0.01955200
Se   19.03085000   10.42332000   18.28712000     -0.355466    0.16127900    0.10374700
Se   18.81996000   16.07405000    8.38626000      0.450497   -0.45080200    0.07542500
Se   19.36653000   15.89204000   18.58333000     -0.842906    1.38773400   -0.22014100
Se   18.54423000   22.04578000    8.51069000      0.341163   -0.14349500   -0.24370600
Se   18.84959000   21.60600000   18.69510000      0.689997    1.32374500   -0.90594200
Se    4.48883000    1.32100000    8.41809000     -0.215617    2.08105600   -0.20898400
Se    4.01413000    1.33858000   18.28929000      0.413093   -0.14622100   -0.09279100
Se    4.47165000    7.13353000    8.34740000      0.221574   -0.63466800    0.45121600
Se    3.83572000    7.63899000   18.51170000      0.167096   -1.41691500   -0.74236100
Se    4.11456000   12.78509000    8.86984000      0.740226    1.32897000    0.28253600
Se    4.70686000   12.84257000   18.22551000     -1.129443    1.54908100   -0.89691200
Se    4.55358000   18.99339000    8.62631000     -1.160402    1.24315900   -0.73074900
Se    4.50673000   19.10492000   17.84357000      0.625827   -0.54572600    0.99414300
Se   10.21830000    1.37666000    8.83107000     -0.122454    0.10264500   -0.43562600
Se   10.27573000    1.57532000   18.07197000     -0.182271    0.84649300    0.00287100
Se   10.00411000    6.79932000    8.66627000      0.385103   -0.62634100    0.14700500
Se   10.58432000    7.07382000   17.66575000      0.031883    0.05539400    0.51171800
Se   10.27154000   13.01414000    8.33984000      0.510726    0.24161600    0.86491000
Se   10.43965000   12.76114000   18.19473000     -0.474585    0.97740700    0.01259100
Se   10.37543000   18.86179000    8.47027000      0.354857    0.23278300    0.35275400
Se   10.14631000   18.70675000   18.21835000      0.253727    0.97948300    0.67758200
Se   15.71852000    1.64375000    8.40241000     -0.311249   -0.48072500   -0.40090300
Se   16.10777000    1.61575000   18.72800000      0.208940   -0.97624400   -0.62277800
Se   15.95193000    7.18650000    8.68557000     -0.407149   -0.33628400   -0.49494700
Se   16.42568000    7.20947000   17.92206000     -0.015274    0.10995800    1.17913800
Se   15.30549000   12.88924000    8.81675000     -0.134938    1.38588600    0.00152000
Se   15.73244000   13.14327000   18.26201000      0.267299    0.49853600    0.09169800
Se   15.60533000   18.83192000    8.17255000      0.628347   -0.46140100    0.69818600
Se   15.96704000   18.83001000   18.38646000      0.928485    0.16634700    0.68067900
Se   22.02525000    1.42933000    8.56985000     -0.032382   -0.94300400    0.14436700
Se   21.87272000    1.70997000   18.21698000     -0.890291   -0.29008300   -0.40463800
Se   22.04043000    7.29206000    8.31865000     -0.589689   -0.66575300    0.20869900
Se   21.63953000    7.21275000   18.14371000      0.871708   -0.11083500    0.85943300
Se   22.16022000   12.96299000    8.38422000     -0.575866    0.34253000    0.00896000
Se   21.83021000   13.33805000   18.03547000      0.264869   -0.43285200    0.72374500
Se   21.91817000   19.20458000    8.43374000     -0.146289   -0.96055100    0.18901500
Se   22.04618000   18.87471000   17.89699000     -0.166207    0.57714200    0.24627800
Se    1.66487000    1.43523000    5.88762000      0.994912   -0.21955800    0.48803800
Se    1.38371000    1.53024000   15.79306000     -0.035384   -0.41939900    0.22616400
Se    1.50425000    7.39438000    6.29386000     -0.159516   -1.04773700    0.52520900
Se    0.99190000    6.94165000   15.75825000     -0.590789    0.49633900   -0.60370700
Se    2.13288000   12.69579000    6.00837000     -0.991089   -0.31671100    0.40883000
Se    1.41326000   13.07089000   15.70816000      0.338176    0.09406100    0.34755100
Se    1.63676000   18.86923000    5.75159000      0.577094    0.03172400    0.72723600
Se    1.40717000   18.63952000   15.72189000     -1.047465   -0.32662700    0.49097500
Se    7.31381000    1.28643000    6.18853000     -0.547369   -0.16908500   -0.11603200
Se    7.02380000    1.32458000   15.84084000     -0.235088    0.33633900   -0.25666600
Se    6.99767000    6.78417000    5.92025000     -0.466383   -0.22069500    0.17540900
Se    7.12859000    7.14132000   15.86212000      0.229689    0.45191300   -0.41897500
Se    7.15374000   12.65205000    5.73442000     -0.266101    0.10942600    0.39817900
Se    7.31206000   12.94481000   16.10881000      0.190705    0.45056600   -0.13023500
Se    7.22256000   18.90803000    5.94447000     -0.466239   -0.03493000    0.16354300
Se    7.36464000   19.16183000   15.98599000     -0.180417   -1.59481000    0.79757200
Se   12.73176000    1.50399000    5.93448000      1.421543   -0.37273400   -0.01105800
Se   13.36517000    1.24500000   15.74852000     -0.347783   -0.23856000    0.49286500
Se   12.96950000    7.27359000    6.01020000      1.114790   -0.21082400    0.49175100
Se   13.59272000    7.45520000   15.61067000     -0.560447   -0.81616300    0.76613600
Se   12.68325000   13.07962000    5.90000000      0.180755    0.25580700    0.14135300
Se   12.96645000   12.76551000   15.65384000     -0.725024    0.80463600   -0.50928500
Se   12.81583000   18.38959000    5.80726000      1.014674    0.64125800   -0.07211500
Se   13.35997000   19.08140000   16.17288000     -1.144415   -0.98679300    0.68642200
Se   18.80473000    1.82597000    6.14930000      0.079274    0.29698700   -0.06427700
Se   18.89550000    1.58100000   15.54981000     -0.342300   -0.15245700    0.56336600
Se   18.79814000    7.28554000    6.31908000      0.024755   -0.17325900    0.05531000
Se   18.70409000    7.12559000   15.83556000     -0.238550    0.57709500   -0.48473200
Se   19.00037000   13.30866000    6.26424000     -0.174624   -0.92166000    0.89036300
Se   18.74681000   13.26229000   15.68921000      0.505169   -0.16912700    0.00245700
Se   18.82062000   18.69931000    6.03111000      0.185960    0.78805600   -0.02601100
Se   18.49144000   19.11633000   16.15051000      0.680760   -0.33691500   -0.09549100
Se    4.36069000    4.47910000    5.96621000      0.985108    0.19374000    0.20987600
Se    4.32299000    4.33233000   16.03982000     -0.425257    0.34341800   -0.00904000
Se    4.80018000    9.81513000    6.06042000      0.127911    0.27132700    0.30146500
Se    3.90846000    9.99873000   15.83879000      0.102756   -0.41315000   -0.25809700
Se    4.66984000   16.10718000    6.17476000      0.166158   -0.94432700   -0.54603500
Se    4.34915000   16.01319000   15.99505000     -0.068106    0.10945900    0.06121800
Se    4.80241000   21.54860000    6.12500000     -1.239378    0.28086300   -0.37101000
Se    4.06958000   21.70217000   15.74610000      0.481375   -0.20060800    0.03031800
Se    9.94826000    3.98446000    6.26941000      0.452576    0.56164500   -0.36376900
Se   10.01909000    4.16662000   15.65354000     -0.425173   -0.45275700   -0.16394700
Se    9.95099000    9.82728000    6.39267000     -0.857592   -0.05569700   -0.15989400
Se   10.18328000   10.00548000   15.95319000      0.160563   -0.13680500   -0.12976800
Se    9.94086000   15.94469000    5.80664000     -0.026272    0.16514100    0.71719100
Se   10.38521000   16.12325000   16.02921000     -0.287573   -0.99817900   -0.71918400
Se   10.14741000   21.69976000    5.97825000      0.434581   -0.14388800   -0.12225300
Se   10.20861000   21.85812000   16.12220000      0.085336    0.11760900   -0.01757300
Se   15.93065000    4.21044000    5.85698000     -0.103868    0.76963400    0.93074300
Se   16.26405000    4.21202000   16.15378000      0.692632    0.21653000    0.02250700
Se   15.82361000   10.58068000    5.72548000     -0.672681    0.26233000    0.92240000
Se   16.40906000   10.65041000   15.74622000     -1.305014   -0.36333500    0.08146900
Se   16.24678000   15.74882000    5.95834000     -1.967160    0.23814300    0.59304000
Se   15.89331000   15.76455000   16.12836000     -0.256667   -0.13231400   -0.70037200
Se   15.88193000   21.63009000    5.81988000      0.662643   -0.02511900    0.13596700
Se   16.31788000   21.94707000   15.93757000     -0.365349   -0.17630800    0.00515000
Se   21.75235000    4.35145000    6.43494000      0.662319   -0.47837700   -0.83616600
Se   21.89418000    4.34311000   15.73787000     -0.178875    0.12068100    0.36017100
Se   21.75860000   10.08596000    6.20363000     -0.993032    0.15565400    0.07196400
Se   21.78275000   10.00631000   16.33429000     -1.151533   -0.02361300   -1.04197300
Se   22.16135000   16.22588000    6.15108000     -1.536361   -0.16864200    0.18687300
Se   21.70040000   16.29198000   15.67586000      0.290545   -0.85609100   -0.51368300
Se   21.43970000   22.38267000    5.76859000     -0.319810   -0.87583800    0.39441600
Se   21.32564000   21.94554000   15.85229000      1.163774   -0.03418700    0.05264200
Se    4.18407000    1.39540000    3.33307000      0.397744   -0.96366900    0.02387100
Se    4.35629000    1.43994000   13.22882000      0.382733   -0.26459400    0.37225400
Se    4.06374000    7.25053000    3.30827000      0.125001   -0.25704200    0.37022300
Se    3.99287000    7.33526000   13.47623000      0.289437   -0.61170100    0.00227400
Se    4.47070000   13.06160000    3.50587000      0.943367   -0.65233500   -0.93814800
Se    4.74191000   13.14185000   13.71273000     -0.689019    0.57387500    0.05794300
Se    4.11264000   18.93487000    3.41627000      0.509260    1.17621300   -0.16260700
Se    4.14098000   18.74666000   13.19431000      0.732543    0.12692900   -0.00415600
Se   10.22573000    1.52218000    3.68730000      0.403780    0.34047900   -0.58607700
Se   10.24412000    1.17048000   13.83229000      0.216842   -0.63170400   -0.43456800
Se   10.31354000    6.98720000    3.99783000     -0.340175   -0.25724400   -0.34389400
Se   10.46394000    6.99978000   13.94247000      0.087154    0.98379900   -0.96720700
Se   10.26131000   12.93753000    3.73989000     -0.276764   -0.03115300   -0.17178500
Se   10.01105000   13.00151000   13.96571000      0.076731    0.71576600   -0.59225700
Se   10.33988000   18.79103000    4.04508000      0.078629    1.11730000   -1.19439800
Se   10.42410000   18.67344000   13.44855000      0.223528    1.21134200    0.05077500
Se   15.75589000    1.60940000    3.60109000      0.688056    0.07905100   -0.18378900
Se   15.98080000    1.96851000   13.12686000     -1.452982   -1.57697200    1.47380500
Se   16.36084000    7.39379000    3.68439000     -1.370600    0.14580400    0.43639700
Se   16.30352000    7.40727000   13.20787000     -0.993188   -0.06753200    1.28223700
Se   15.99175000   13.11644000    3.53975000     -1.485612   -1.94298300    0.89259000
Se   16.18416000   13.22487000   13.36794000     -0.678643    0.20445700    0.12982400
Se   16.10699000   18.89485000    3.77245000     -0.086054   -0.34544000   -0.10286100
Se   16.07436000   19.09599000   13.44489000      0.037599    0.28786900   -0.22463900
Se   21.74964000    1.77457000    3.67453000     -0.137409   -0.20645200    0.35181700
Se   22.11899000    1.15281000   13.04966000     -0.669637    0.31184900    0.87123200
Se   21.93631000    7.35707000    3.94378000     -0.987748   -1.27262800    0.32265200
Se   21.55138000    7.08349000   13.69320000      0.733815    1.20521500   -0.77037700
Se   21.59681000   13.22339000    3.69616000     -0.029823    0.59821300    0.43607900
Se   21.81101000   13.29241000   13.36156000      0.628640    0.10815100   -0.83899200
Se   21.79066000   19.18925000    4.12240000      0.666466   -0.51727100   -0.69014700
Se   21.48574000   18.93317000   13.57690000     -0.533329   -0.31416100    0.55026000
Se    1.67522000    4.41748000    3.55808000     -0.060256    0.64756000    0.30295100
Se    1.57237000    4.19689000   13.40600000     -0.566598    0.66135500   -0.59395300
Se    1.41278000    9.97277000    4.01048000     -0.341407    0.75497900   -0.66098400
Se    1.11882000   10.12533000   13.46083000     -0.706355    0.96901600   -0.71956500
Se    1.73374000   16.02707000    3.80955000     -0.541521   -0.65397100    0.02187100
Se    1.67532000   16.01698000   13.17151000     -0.151210    0.34844800    0.12330700
Se    1.23057000   22.24506000    3.70614000      0.839884   -0.04800200    0.43761200
Se    1.43795000   21.63185000   13.18526000     -0.471350   -0.64295300    0.32769500
Se    7.26845000    4.12570000    3.40925000     -0.622807    0.88434000   -0.20976200
Se    7.52692000    4.26438000   12.98019000      0.184757    0.51638200    0.73270300
Se    7.23460000    9.78169000    3.49019000      0.797200    0.34321600    0.90906100
Se    7.30134000   10.09377000   13.67104000     -0.192720   -0.18779600   -0.41925000
Se    7.19857000   15.93530000    3.47255000      0.538404   -0.28372400    0.31436500
Se    7.34623000   16.29982000   13.50261000      0.216119   -0.80871400    0.47755300
Se    7.39727000   21.89951000    3.11578000     -0.147131   -0.93087200    0.42523600
Se    7.33678000   21.68088000   13.69625000     -0.162503   -0.76277300   -0.44501400
Se   13.35204000    4.57524000    3.39692000     -1.147156    0.91789600   -0.62880000
Se   13.00958000    4.26632000   13.67405000     -0.048134   -0.24493400    0.05494000
Se   12.75760000   10.08639000    3.80841000     -0.321677   -0.25222000   -0.74906600
Se   13.25683000   10.31345000   13.29586000     -0.199442   -0.87481600    0.10867200
Se   13.30390000   15.94220000    3.58440000     -0.671488   -0.69785500   -0.34614400
Se   13.07845000   16.01610000   13.45749000     -0.464132   -0.68476700   -0.14004600
Se   13.07255000   21.97143000    3.48765000      0.418920   -1.24428300    0.44150200
Se   13.02346000   21.74257000   13.97043000      0.285203    1.49698200    0.25714100
Se   18.83911000    4.81027000    3.97785000     -0.735050    0.55763800   -0.69717700
Se   19.41837000    4.22164000   13.47146000     -0.252342    0.45396300   -0.37972000
Se   18.67418000   10.18492000    3.78316000      0.677984    0.04974700   -0.11158100
Se   19.14084000   10.39568000   13.28673000     -0.059084    0.05278000    0.27494100
Se   18.66614000   16.09489000    4.06060000      0.059095   -0.16748400   -0.63060800
Se   18.82256000   16.17551000   13.49378000     -0.303080    0.15787500   -0.80385900
Se   18.92101000   21.91317000    3.34542000     -0.812947   -0.16529900    0.16073900
Se   18.93703000   21.98277000   13.05182000     -0.345202    0.05570900   -0.08342800
