384
23.23808000 23.23808000 19.51320000
Ge    5.83100000    5.46430000    9.98303000     -0.528892    1.49452700   -1.09503600
Ge    5.61905000    6.10073000   19.22564000     -0.535193   -0.37205300    0.28497000
Ge    5.70427000   11.89099000    9.82625000      1.192613   -0.51284800   -1.02737500
Ge    5.60962000   11.65982000   19.44741000      0.495970   -0.25593500   -0.09478000
Ge    6.35378000   17.51441000    9.99940000     -0.651592   -0.34065400   -1.07190000
Ge    5.53683000   17.41212000    0.03323000      0.845557   -0.48688700    0.57784700
Ge    5.94007000   22.95967000   10.02962000      0.889081    0.86230200    0.64029100
Ge    5.41345000    0.53500000   19.38951000      1.437604    1.08705600   -1.13512000
Ge   11.23829000    6.08127000   10.08463000      1.188168   -0.13895700    1.38133200
Ge   11.46542000    5.76156000    0.12579000     -0.299313    0.13795900   -0.47355900
Ge   11.43791000   12.11874000    9.99009000      0.837931    0.55575700   -0.20468600
Ge   11.53012000   11.61081000   19.29038000     -0.740480    0.13576200   -0.32736600
Ge   11.59855000   17.50050000    9.90203000     -0.552537    0.71578900   -0.87466000
Ge   11.64021000   17.08194000    0.10070000      0.372319    0.71706600   -1.21837100
Ge   11.35762000   23.21245000    9.69527000      1.034505   -0.18617400   -0.05531800
Ge   11.84785000   23.14578000   19.42272000     -0.006177   -0.39939000    0.61812100
Ge   17.17116000    5.58688000    9.59177000      1.364030   -1.33280100    0.24767100
Ge   17.86555000    5.60719000    0.09215000     -1.855232    0.29786100   -0.34313800
Ge   17.60112000   11.74731000    9.81088000     -1.004553   -1.32295200    0.19421400
Ge   17.16262000   11.35786000   19.40441000      0.189071   -0.13314300    0.41952300
Ge   17.46021000   17.38729000    9.23880000     -0.916091    0.77537800    1.95940300
Ge   17.90895000   17.13943000    0.21031000     -2.010739    1.11693100    1.04649600
Ge   17.53610000   23.23450000    9.60640000      0.049057    0.22854800    0.92371600
Ge   18.07022000   23.13573000   19.39974000     -0.086388   -1.04810500    1.18692400
Ge   22.98962000    5.55427000    9.65634000      0.985054   -0.31060200    0.49358400
Ge   22.99510000    6.05856000   19.45727000      0.423221   -0.81783200    0.29691300
Ge    0.49912000   11.62178000    9.89137000     -1.909282   -0.80116700   -0.62977900
Ge   22.88986000   11.44630000   19.37623000     -0.111510    0.45681100   -0.83938500
Ge    0.61903000   17.34633000    9.41194000     -0.227203    0.65366800   -0.18457600
Ge    0.08447000   17.32780000    0.09156000     -1.188531    0.61438500   -0.29299800
Ge    0.17893000   22.89683000    9.64925000     -1.423598   -1.02924600    1.03456800
Ge   23.22808000    0.02659000    0.28562000      0.562763   -0.69669900   -0.16971100
Ge    2.85845000    5.81093000    7.40643000      0.726674    0.09757700   -0.17715800
Ge    2.47979000    5.97593000   16.93587000     -0.354383   -0.42037100   -0.42195300
Ge    3.01034000   11.64844000    7.16363000      0.586568   -1.53164200    0.20202700
Ge    2.66388000   11.76074000   16.79221000     -0.064830    0.44165500   -0.28523700
Ge    3.51931000   17.64872000    7.15989000      0.509698   -1.65610800    0.35113200
Ge    2.87894000   17.19452000   17.05322000     -0.261926    1.71821000   -0.04297800
Ge    3.21013000    0.06133000    7.64076000      0.052341   -0.79027200   -1.64196000
Ge    2.58328000    0.10646000   17.02495000      0.749128    0.50170100   -0.62732300
Ge    8.70050000    6.26317000    7.54022000     -1.373779   -1.54711900   -0.68533400
Ge    8.55059000    5.89778000   16.99034000      2.194116   -0.20423200   -0.13575400
Ge    8.90583000   11.88249000    7.35512000     -0.013381    0.34007700   -1.28028400
Ge    8.18455000   11.81993000   17.07585000      0.578714   -0.01389700   -0.33566900
Ge    8.63275000   17.37957000    7.20096000      0.892372    0.71205800   -0.57630200
Ge    8.55328000   17.30109000   17.42695000      0.919779   -1.86047500    0.56472200
Ge    8.43301000   23.23204000    7.09658000     -0.425022   -1.32041300    0.25815100
Ge    8.85621000    0.24547000   17.40536000     -0.831600   -0.37062600   -0.00604700
Ge   14.30858000    5.77835000    7.19456000     -0.776184    0.26375700   -0.10683100
Ge   14.71587000    5.75942000   17.17997000     -0.553111   -0.91120500   -0.48609800
Ge   14.55050000   11.75917000    7.73637000     -0.268320    0.97442700   -0.63000000
Ge   14.52575000   11.41619000   16.86171000      0.192727    0.66578800    0.03523700
Ge   14.46547000   17.23278000    7.47543000     -1.126737    0.38071600   -1.09118100
Ge   14.84685000   17.46820000   17.50760000      0.832858    1.38802000   -1.30899300
Ge   14.79868000   23.17108000    7.27068000     -1.422762    0.48019400    0.54414300
Ge   14.87871000   23.17764000   16.90611000     -0.369593    0.46080400    1.06991100
Ge   19.97151000    5.85616000    7.34358000      0.143433   -0.03633100   -0.17469500
Ge   20.19030000    6.00018000   17.00270000     -0.762356    1.37492000   -0.25629600
Ge   20.57350000   11.37156000    7.55360000      0.103157   -0.08798200   -0.78354100
Ge   19.91897000   11.78403000   16.95336000      0.352247   -0.64165300    0.44458100
Ge   20.64431000   17.40149000    7.20622000     -0.324317   -0.18605400    0.28703000
Ge   20.18860000   17.55596000   17.22597000      0.599312   -0.55812500   -0.33329500
Ge   20.16107000   23.05051000    7.30657000      0.929183   -0.47883900   -0.25805700
Ge   20.62401000   23.01411000   17.20555000      1.334113   -1.06919800    0.41126100
Ge    2.95118000    2.79769000    4.91609000      0.655162    0.77757200   -0.03161500
Ge    2.88994000    2.93882000   14.67456000     -1.711276   -0.73403000   -0.42365800
Ge    3.00230000    8.84226000    4.89319000      0.387606   -1.03977100   -0.34335800
Ge    2.82126000    8.67895000   14.53474000      0.467829    1.37276600   -0.45977900
Ge    3.22413000   14.64648000    4.77035000     -1.133584   -1.31080400   -0.10359700
Ge    2.88705000   14.80423000   14.45802000     -0.891353   -0.05483900    0.11493800
Ge    3.06634000   20.51194000    4.94090000      0.709918    0.82211700    1.10486900
Ge    3.30448000   20.24176000   14.73706000     -0.391156   -1.49450300    0.35923700
Ge    8.66849000    3.24362000    5.09836000      0.354018   -1.20604000   -0.27281500
Ge    8.92654000    2.99619000   14.68469000      0.123626    1.73795000    0.11074000
Ge    8.54797000    9.03859000    4.96146000      1.247054   -0.13462000   -0.51109400
Ge    8.39629000    8.77245000   14.59797000     -0.175191    0.78532900    1.07798100
Ge    9.08622000   14.62460000    4.70811000     -0.986550   -1.39762900    0.15570700
Ge    8.54235000   14.70704000   14.78956000      0.580377   -0.58151900   -0.28885800
Ge    8.48025000   20.15945000    4.51032000      0.790460   -0.12433500    0.23531100
Ge    8.82544000   20.30310000   15.39575000      1.151441   -0.08948100   -0.71652300
Ge   14.66548000    2.78436000    4.75040000     -0.879678   -0.58849400    0.17213700
Ge   14.63184000    2.82282000   14.38416000     -0.091967    0.76679800    1.15989500
Ge   14.16459000    8.98417000    5.09238000      0.333324   -0.98096900   -0.01640300
Ge   14.40600000    8.50804000   14.51089000      1.492867    0.13634100   -0.25031300
Ge   14.60287000   14.42733000    4.85665000     -1.134512    0.35980000    0.84621000
Ge   14.82161000   14.59462000   14.78366000      0.006651    0.07007900    0.27146600
Ge   14.35463000   20.12724000    4.79822000     -0.940549   -0.78856200   -0.52476800
Ge   14.44627000   20.25476000   14.50322000      1.046037   -0.35893800    0.31284400
Ge   20.23706000    3.05842000    4.87845000     -0.054079   -0.25553300    0.07655700
Ge   20.24494000    2.82319000   14.85348000      0.250255   -0.54141900   -0.18192000
Ge   20.18181000    8.63511000    4.88909000      0.952904    0.86797500   -0.35665800
Ge   20.21439000    8.69223000   14.38638000     -1.029429    0.12237400    0.51912200
Ge   20.32073000   14.04452000    4.76662000     -0.955615    1.57359100    1.76684000
Ge   20.03284000   14.73014000   14.49515000     -0.544622   -0.42455900    1.27123800
Ge   20.42715000   20.34521000    4.88974000      0.465116    0.77268600   -0.86818900
Ge   20.42068000   20.25272000   14.50997000     -0.141353   -0.73445800    0.49285700
Ge    5.89635000    3.26924000    2.21251000     -1.492457   -0.46383000    0.44623500
Ge    5.60383000    2.51511000   12.37357000      0.469660    0.26652400    0.54855000
Ge    5.44923000    9.19378000    2.51945000      0.564738    0.01662200   -1.08847900
Ge    5.71120000    8.58627000   12.15393000     -0.473696   -0.43671000   -0.69017500
Ge    6.19155000   14.73010000    2.58178000     -4.066641   -1.75067500   -0.99975600
Ge    5.81254000   14.68694000   12.18527000      0.606358    0.95901300    0.18077600
Ge    5.73056000   20.50279000    2.20583000     -0.362112    0.15544100   -0.33905000
Ge    6.26470000   20.18051000   12.62215000     -1.143551   -0.60492100    0.37050700
Ge   11.62243000    2.77698000    2.45493000     -1.200107   -1.60587000   -0.00360500
Ge   11.47302000    2.58306000   12.20261000      0.603394    0.22788100   -0.91175800
Ge   11.33892000    8.96944000    2.42746000      1.801420   -0.00750000   -0.78267400
Ge   11.32506000    9.29477000   12.33051000      0.235795   -1.47725800   -0.22747200
Ge   11.75614000   14.26472000    2.52067000      0.116444   -0.03507600   -1.10603200
Ge   11.90368000   14.64611000   12.49285000     -0.866433    0.61636800    0.42500000
Ge   11.46121000   20.08211000    2.04021000      0.454334    0.42259900    0.22029400
Ge   11.38690000   20.44183000   12.44028000     -0.340234    1.11350800    0.22943600
Ge   17.27579000    2.73294000    2.37566000      1.335270    0.00168400   -0.04112100
Ge   17.52907000    2.82513000   12.14145000     -0.906508   -0.40901200    0.57081900
Ge   17.22531000    8.50604000    2.39981000      0.713720    0.74414100    0.72145900
Ge   17.22769000    8.34222000   11.90548000     -0.881249    0.67935400   -0.23347400
Ge   17.27018000   14.44523000    2.46811000      1.039544    0.11805000   -0.16873300
Ge   17.50656000   14.65814000   11.92664000      0.476103    1.13185600    0.26191300
Ge   17.57435000   20.16152000    2.45152000     -0.704462   -0.29544700   -0.08585400
Ge   17.31389000   20.30301000   11.91958000     -0.299724    0.22492200    0.97248000
Ge    0.00166000    2.85318000    2.45465000     -0.317613    0.90560600   -0.17168000
Ge   23.07772000    2.62845000   12.13799000     -0.643139    0.50405500   -0.08904500
Ge   23.11806000    8.66251000    2.36907000     -0.686606    0.00829600    0.23772700
Ge    0.20250000    8.76294000   12.20723000     -0.559254    0.23092800   -0.71908300
Ge    0.07152000   14.25968000    2.52778000     -0.682588    0.60926600   -0.53832200
Ge   23.05835000   14.61951000   12.20789000     -0.671576    0.64223100   -0.10685900
Ge    0.38931000   20.22661000    2.72294000     -1.244822    1.49683300    0.04884000
Ge   23.17684000   20.02571000   12.18144000      0.161165    0.55368300    0.00846100
Se    1.54722000    1.50053000    1.31540000      0.106292   -0.17346800   -0.18649300
Se    1.31083000    1.18127000   10.96778000      0.906658    0.62775800    0.35453400
Se    1.38130000    7.29552000    1.25230000      0.019066   -0.61640200   -0.66332000
Se    1.32190000    6.94405000   10.91388000      0.024682    0.24871000    0.07967400
Se    1.20853000   12.85558000    1.01126000      0.619914   -0.07365800    0.22437000
Se    1.40682000   13.18275000   11.39636000      1.297662   -0.32927200   -0.55931100
Se    1.53851000   18.75884000    1.39148000      1.034122   -0.63597200   -0.75447000
Se    1.59813000   19.24080000   10.65720000      0.330919   -0.95514200    0.00950500
Se    7.17273000    1.79839000    0.93515000      0.175110   -0.18386000   -0.13054800
Se    7.38111000    1.27932000   11.46663000     -0.365331   -0.71563300   -0.95539400
Se    6.86936000    7.90572000    0.72825000     -0.225169   -0.23749600    0.58539800
Se    7.14976000    6.95552000   11.14991000      0.520715    0.95239000    0.64818200
Se    7.01404000   13.27818000    0.98486000      1.531503   -0.89166800   -0.64896200
Se    7.28926000   13.29292000   10.90801000      0.261005   -0.12695700    0.20540000
Se    7.23498000   18.93707000    1.18891000     -1.152084   -0.15491100   -0.35129600
Se    7.69905000   18.73476000   11.53188000      1.055265   -0.22831000   -0.92477400
Se   13.13817000    1.31227000    1.35244000     -0.048336   -0.24704500   -0.05508000
Se   13.06997000    1.24730000   10.80701000     -1.586283    0.40461000    0.37230900
Se   12.82816000    6.99101000    1.57123000     -0.170457    1.18116600    0.30579300
Se   12.85625000    7.82827000   11.03609000     -1.444762   -0.50398900    0.02818300
Se   13.06332000   12.62529000    1.24507000      0.206592    0.79645700    0.16379300
Se   13.26853000   13.10911000   11.32620000     -0.786571   -0.16600300   -0.42606800
Se   13.05438000   18.90290000    0.61196000     -0.042259    0.12108500    1.06998300
Se   12.82126000   19.15839000   11.13154000      0.859433   -0.13056800   -0.47855200
Se   19.25765000    1.66846000    1.18234000     -1.163371   -0.28263500   -0.01542600
Se   19.11152000    1.54659000   10.96680000     -0.540522   -0.70952600   -0.61102100
Se   19.01403000    7.11512000    1.47258000     -0.116182    0.25812800    0.21306000
Se   18.73744000    7.21202000   10.45062000     -0.356950   -0.39713600    0.33568500
Se   18.59664000   13.04266000    1.00209000     -0.024742   -0.41390500    0.34756600
Se   19.04478000   13.27977000   10.77057000      0.497221    0.23364100    0.44625000
Se   19.13159000   18.59256000    1.54552000      0.693703    0.67120900    0.60966700
Se   18.76461000   19.14621000   10.53874000      0.355002   -1.20871800   -0.39234800
Se    4.14209000    4.52133000    0.89526000      1.162178    0.06607700    0.52654700
Se    4.37344000    4.09723000   11.02249000     -1.576874   -1.04324500    0.84747100
Se    4.03150000   10.90109000    1.43597000     -0.120896   -1.51997200    0.41322700
Se    4.47658000   10.16402000   10.72908000     -0.586895   -0.69400100    0.42255100
Se    4.26746000   15.84265000    1.46853000      0.641762    0.48889600    0.03869900
Se    4.57727000   16.06265000   10.66191000     -0.011685    0.00201600    0.59970700
Se    4.31218000   22.34789000    1.16142000     -1.446639   -2.01628600    1.46885500
Se    4.68492000   21.57588000   11.50788000     -0.473643   -0.01095000   -0.18568500
Se   10.07280000    4.18889000    1.43472000     -0.439363    0.65411100   -0.69424400
Se    9.93125000    4.38440000   11.48125000      0.674208    0.04403900   -0.49899200
Se    9.96831000   10.18925000    0.91794000      0.291014   -0.04630000    0.12733600
Se    9.87549000   10.79140000   11.16005000     -0.298913   -0.25881100   -0.02064300
Se   10.21047000   15.54873000    1.04912000      0.368493   -0.49936900    0.77642000
Se   10.31934000   16.31931000   11.46732000      0.005531   -0.86474500    0.06340800
Se   10.12706000   21.56767000    0.68532000      0.474116    0.52725300    0.49069500
Se    9.87906000   21.94812000   11.02227000      0.308304   -0.64721300    0.56957000
Se   16.07845000    4.16115000    0.87151000     -0.097118    0.13143700    0.44103500
Se   15.84535000    4.24866000   11.04320000      0.305115   -0.29510100    0.11174900
Se   15.70778000    9.66125000    1.01920000      0.453836    1.06218300   -0.37707000
Se   15.80786000   10.36265000   11.18385000      1.352305   -0.04954400   -0.70137200
Se   16.11006000   16.04611000    1.20856000     -0.910258   -0.28106900    0.42556500
Se   15.94722000   15.99588000   10.77106000      0.635270    0.59841400   -0.75715800
Se   16.38523000   21.63569000    1.03615000      0.210681    0.66696400   -0.32506400
Se   15.83606000   21.85999000   10.90224000      0.688229    0.62669100   -0.46834200
Se   21.69880000    4.33225000    1.12179000      0.451717   -0.13996500    0.19245800
Se   21.53634000    4.20796000   10.99735000      0.477831   -0.49685700    0.03331200
Se   21.52617000    9.85930000    1.00483000      0.211109    0.34612900    0.30357300
Se   21.96823000   10.18618000   10.90821000      0.928138    0.12773300   -0.06078000
Se   21.84723000   15.79828000    1.28206000      0.557505    0.05116500    0.28613700
Se   22.15687000   16.30877000   10.71431000     -0.603003   -0.27933800    0.03364000
Se   22.01109000   21.85811000    1.77537000      0.239548   -0.24507300   -0.35473600
Se   21.72813000   21.62034000   11.08730000      1.036562    0.10682500   -0.25867600
Se    1.22099000    4.33766000    8.03371000     -1.042761   -0.67301500    1.09296000
Se    0.96455000    4.53497000   18.03170000      0.227824   -0.25447400    0.12244000
Se    1.66586000   10.09994000    8.43268000     -0.246683    0.11919800    0.35489900
Se    1.37935000   10.31283000   18.09130000     -0.646193   -0.85200200    0.32736300
Se    2.15935000   15.83376000    8.30954000     -0.155466    0.96652000   -0.13817100
Se    1.66177000   15.87275000   18.59368000     -0.060531   -0.39555500   -0.09554400
Se    1.94668000   21.63985000    8.75905000      0.228197   -0.39174300   -0.06923200
Se    1.30588000   21.88078000   18.23581000     -0.720310   -0.70736400    1.03096900
Se    7.60030000    4.45744000    8.94096000      0.599031   -0.22784900   -1.29172600
Se    6.98044000    4.46460000   18.05472000      0.021522    0.22035200    0.28396100
Se    7.24049000   10.49338000    8.26780000     -0.548379    0.33401400    0.96508200
Se    7.19157000   10.07296000   18.44513000     -0.523251    0.87962400   -0.06514000
Se    7.59333000   15.85580000    8.63505000     -0.325711    0.37190900    0.36867100
Se    7.20980000   15.74496000   18.70306000     -0.477528    0.87994600   -0.44889500
Se    7.04515000   21.63559000    8.49385000      1.179683   -0.19358000   -0.51803100
Se    6.91995000   22.18213000   18.45813000      1.063066    0.27968400   -0.53302800
Se   12.56446000    4.74639000    8.69903000      0.729090   -1.07724500   -0.47760900
Se   12.92318000    4.40137000   18.33135000      0.732399   -0.23891900   -0.19638600
Se   12.94192000   10.59579000    8.93362000     -0.311834   -1.01464600    0.15501900
Se   13.18279000   10.12970000   18.35367000     -0.326099   -0.39671300   -0.25018200
Se   13.04886000   15.86502000    8.92433000      0.216311    0.30332300   -0.10585600
Se   13.23894000   15.98312000   18.09742000     -1.177077   -1.20607300    0.64302800
Se   13.33368000   21.95841000    8.88189000      0.092684   -0.39534000   -0.63790500
Se   13.43198000   21.80385000   18.30172000      0.161009   -0.30578300   -0.29486800
Se   18.66485000    4.07872000    8.30398000     -0.132145    0.83130500    0.23902500
Se   19.21628000    4.26574000   18.25520000     -0.077690   -0.12128200    0.07054900
Se   19.13817000   10.08062000    9.01647000      0.026615    0.13293000   -0.37246400
Se   18.87507000    9.99803000   18.32365000     -0.225891    0.95906300   -0.26541400
Se   19.02868000   15.95212000    8.41381000      0.814158   -0.28932900   -0.55228900
Se   19.48932000   15.86297000   18.96797000      1.458019   -1.25508900   -2.17305400
Se   18.91009000   21.54848000    8.59511000     -0.236412   -0.07136300    0.08026700
Se   19.58278000   21.36772000   18.60289000     -0.497992    0.91281500   -0.11630300
Se    4.84672000    1.32304000    8.64766000     -0.113155    1.11396900    0.70421700
Se    4.00788000    1.85365000   17.94163000     -0.051286   -0.30235500    0.28592100
Se    4.25695000    7.05153000    8.79528000      0.906906   -0.19087700    0.73313900
Se    3.80314000    7.37683000   18.21931000      0.678284    0.63157000    0.26638600
Se    4.04274000   13.12292000    8.68814000      0.156634    0.86528700   -0.11873200
Se    4.04868000   13.01093000   18.31275000      0.018690    0.88939400   -0.50312500
Se    4.89989000   18.98712000    8.60393000      0.281195   -0.14971100    0.23673200
Se    4.32317000   18.91944000   18.18567000     -0.407252   -0.66653900   -0.17305500
Se    9.91586000    1.27950000    8.32275000      0.600448    0.90194400    0.34579600
Se   10.65619000    1.56286000   18.26733000     -0.591510    0.44712200   -0.12203800
Se    9.84738000    7.52788000    8.99741000      0.285028    2.23035900    0.34051100
Se   10.41616000    7.31011000   18.01211000     -0.866455   -0.63799800    0.59587900
Se   10.36040000   13.56807000    8.33460000     -0.189632   -0.51761100    0.48556000
Se   10.05885000   13.15567000   17.98696000      0.498837   -0.49461500    0.23892400
Se   10.32571000   18.91200000    8.05125000     -0.061073   -0.68982100    1.01526800
Se    9.93002000   18.61642000   18.73188000      0.857669    0.06799000    0.02041800
Se   16.44474000    1.45700000    8.03912000     -0.248762   -0.28436800    0.71233500
Se   16.48009000    1.18498000   18.29407000     -0.698119    0.54354800   -0.64692800
Se   15.89295000    7.07439000    8.45120000     -0.855640    1.16135800   -0.63654000
Se   16.11335000    7.13235000   18.46155000      0.779404   -0.38052900    0.34069000
Se   16.51480000   13.04694000    8.10860000     -0.301357    0.19752300    0.66269000
Se   15.87525000   12.94568000   18.20325000     -0.058839   -0.46360900   -0.31208600
Se   15.85572000   18.93314000    8.33892000      0.230395   -0.19803300    0.04963200
Se   16.50715000   18.74670000   18.80964000     -1.002773    0.50080500   -1.18729400
Se   21.87215000    0.93711000    8.48328000     -0.050190    1.52700200    0.04218500
Se   21.84600000    1.39624000   18.50673000     -0.423359    0.38850800   -0.42745500
Se   21.60789000    7.08853000    8.65085000     -0.722537    0.81955700   -0.43777700
Se   21.72269000    7.57198000   18.18876000     -0.780158   -0.20327400   -0.55967900
Se   22.09010000   12.93228000    8.52955000      0.182800    0.25904800    0.19437700
Se   21.69419000   13.07617000   17.99110000      0.012663   -0.39412800    0.32516100
Se   22.25132000   18.87490000    8.15687000      0.264119   -0.93295100    0.47832100
Se   21.98915000   18.93151000   18.05301000      0.354508   -0.68929400    0.51199200
Se    1.62049000    1.35106000    6.26799000      0.172745   -0.19970300    0.14385400
Se    1.19394000    1.23841000   15.45952000      0.685409    0.40095100    0.46418600
Se    1.65906000    7.51871000    6.35988000     -1.118641    0.42075100   -0.71605300
Se    1.18230000    7.30128000   15.43202000     -0.724886    0.03666900    0.46544400
Se    1.61008000   12.77011000    5.73668000      0.459597    1.16430800   -0.42468100
Se    1.25274000   13.26954000   15.37455000      0.624215   -0.33940500    0.65608400
Se    1.85576000   19.02330000    6.41154000     -0.725464    0.30152900   -0.69813800
Se    1.51726000   18.63748000   15.58816000      0.944466    0.13262200    0.40786100
Se    7.05912000    1.49198000    5.95507000      0.111385    0.77607400   -0.32847700
Se    7.55072000    1.65198000   15.96409000     -0.733605   -0.51103800    0.82082500
Se    7.17188000    7.58588000    6.16034000     -0.357933   -0.92945700    0.69088500
Se    7.05013000    7.47337000   16.13517000     -0.300009    0.13170900   -0.72866700
Se    7.32938000   13.29306000    5.83294000      1.464832   -0.29196600    0.57016900
Se    6.90599000   13.20212000   15.51236000     -0.281873   -0.53399700    0.66875900
Se    7.12213000   18.67981000    5.78313000     -0.126373   -0.14071400    0.41338000
Se    7.28775000   18.72442000   16.19601000     -0.986056    0.63617900   -0.48614000
Se   13.26915000    1.52778000    6.36368000      0.006821    0.16298300   -0.63660000
Se   13.35803000    1.60123000   16.12091000      0.143692    0.07975300   -0.50121800
Se   12.65869000    7.35118000    6.11378000      1.002750   -0.21267800    0.07939200
Se   13.18910000    7.39550000   16.08267000     -0.386996   -1.04051300    0.56536900
Se   13.13028000   13.16336000    6.40010000      0.328695    0.43018200   -0.59253900
Se   13.15487000   13.18447000   15.85537000      0.338342   -0.07197200   -0.21468500
Se   12.81484000   18.61645000    6.02343000      1.306296    0.10495700    0.34992900
Se   13.35795000   18.94182000   16.10727000     -0.226694   -0.63558200    0.55221600
Se   18.91275000    1.33969000    6.12847000     -0.269751    1.18473000   -0.72559900
Se   19.05454000    0.94815000   16.06087000     -0.781230    1.30304700   -1.01068100
Se   18.64423000    7.69394000    6.37717000     -0.144734   -0.88692200    0.07781300
Se   18.53909000    7.35322000   15.56750000      1.163863   -0.47391200    0.54394200
Se   18.89026000   12.77387000    6.24805000      1.101371   -0.25890700   -0.04083100
Se   18.45012000   13.27417000   15.94666000     -0.060820    0.59363500   -0.78103300
Se   19.15185000   19.03804000    6.36881000     -0.856011   -0.10620800   -0.23258000
Se   18.72461000   18.87591000   15.78950000      0.700037    0.01659800    0.15815400
Se    4.34739000    4.50729000    6.15774000     -0.109804   -0.74723600   -0.62254800
Se    4.01597000    4.80187000   15.52387000      0.772730   -0.18957600    0.40574000
Se    4.61716000    9.91205000    6.24038000     -0.369106    1.25997600    0.13113200
Se    4.26758000   10.25826000   15.86272000     -0.315377   -0.48207100   -0.34029700
Se    4.76625000   16.19107000    5.52486000      0.170144    0.85746600    1.02539500
Se    4.40766000   15.74393000   16.00997000      0.271126    0.02221000   -0.07852200
Se    4.75413000   21.72630000    6.24075000     -1.266864    0.36384300    0.10350600
Se    4.33337000   21.72873000   16.32802000     -0.125112    0.03679200   -0.45814500
Se   10.14400000    4.64638000    6.48587000     -0.174636   -0.33090600   -0.45365100
Se   10.47164000    4.68053000   15.71914000     -2.164154   -0.11547200    0.00676700
Se   10.38642000   10.09233000    6.18208000     -1.165124    0.73305600    0.22635700
Se    9.69170000   10.38643000   15.84404000      0.221037   -0.14548800   -0.22358700
Se   10.31155000   16.26047000    5.77291000      0.206657    0.38131600    0.71481100
Se   10.06673000   15.65130000   16.28446000     -0.215262    1.15621300    0.09156200
Se    9.82803000   21.69126000    5.85039000      0.291992   -0.18695700    0.04930100
Se   10.31946000   21.85487000   16.46488000     -0.331623   -0.39967400   -0.23451500
Se   15.94055000    4.39396000    5.93217000     -0.245860    0.58425300    0.32942500
Se   16.19357000    4.31277000   15.80347000     -1.185970    0.13559600   -0.16376600
Se   15.71561000   10.20227000    6.47230000      0.382410   -0.80948100   -0.65277700
Se   16.00949000   10.09734000   15.49511000     -0.260485    0.14697000    0.07279500
Se   15.97789000   15.98331000    6.05251000      0.149200    0.05901100    0.09914100
Se   16.20537000   16.22109000   15.91446000      0.228115   -0.28542900    0.24935300
Se   15.83604000   21.61553000    5.88089000      0.852007   -0.11988400   -0.09827800
Se   16.06357000   21.58892000   15.71553000      0.792053   -0.24449500   -0.45134300
Se   21.59343000    4.68418000    6.00394000     -0.279396   -0.17695500   -0.06469200
Se   21.58959000    4.53180000   15.91716000      0.939975   -0.97269700   -0.87018900
Se   21.98733000    9.88820000    6.07194000     -1.241095    0.29008600    0.26057600
Se   21.35142000   10.34041000   15.65561000      0.517006    0.12617900   -0.05615800
Se   21.72795000   15.91190000    5.79738000      0.516364   -0.88869700   -0.42154500
Se   21.47347000   15.77757000   16.02391000      0.197726    0.79399500    0.31230700
Se   21.81630000   22.00490000    5.96959000     -0.080005   -0.62711800   -0.17799400
Se   22.05737000   21.48794000   15.80748000     -0.322725    0.16654500    0.00043700
Se    4.65405000    1.60201000    3.75096000      0.084562    0.43012900   -0.49001100
Se    4.18186000    1.13680000   13.78652000      0.208465    0.67929600   -0.62191100
Se    4.73649000    7.35139000    3.67039000     -1.273564   -0.19635300    0.78067100
Se    3.99640000    7.16374000   13.07089000      0.259383    0.54689000    0.28035900
Se    4.82989000   13.08681000    3.80476000     -0.377164    0.99458400    0.21207000
Se    4.26532000   13.30934000   13.28476000      0.232959   -0.74787400   -0.18362800
Se    4.00352000   19.17912000    3.28404000      0.542524   -0.54257700   -0.44980100
Se    4.92641000   18.55145000   13.84943000     -0.540307    1.19765700   -0.08842400
Se   10.23634000    1.58141000    4.09043000     -0.279180    0.53262800   -0.20284100
Se   10.39794000    1.38818000   13.90639000      0.147669   -1.08681900   -0.46032400
Se    9.84057000    7.60141000    3.41983000     -1.014295   -0.78740100    1.22524300
Se    9.97565000    7.55451000   13.45741000      0.755472   -0.35393900   -0.68219300
Se   10.40439000   12.83013000    3.75975000     -0.461447    0.23404500    0.35941700
Se   10.02003000   13.27375000   13.51161000      0.619723    0.48301200   -0.17564600
Se    9.87828000   18.63690000    3.14475000      0.220422    0.50792800    0.27930900
Se   10.42321000   18.96556000   14.00569000     -0.699875   -0.20009300    0.30175100
Se   16.26231000    1.15821000    3.88740000     -0.494688    0.34957900   -0.41586200
Se   15.92784000    1.17891000   13.39450000      1.019891    0.44055100   -0.86360500
Se   15.60151000    7.43544000    3.75080000      0.010802   -0.58364600    0.41111200
Se   15.76867000    6.94770000   13.21263000     -0.129668    0.10314200   -0.01439000
Se   15.85924000   12.94977000    3.58048000      0.000690   -0.81031100    0.03373000
Se   16.18976000   13.27077000   13.27963000     -0.236239   -0.82939400    0.45093400
Se   15.73424000   18.76816000    3.33368000      0.255050    0.31004200    0.36089400
Se   15.71188000   18.82028000   12.96884000      0.115557    0.17296600    0.24741000
Se   21.78293000    1.54380000    3.79729000      0.026400    0.00609900   -0.02564400
Se   21.69886000    1.32157000   13.55518000     -0.642333   -0.12031300    0.24730600
Se   21.66408000    7.17629000    3.54063000     -0.079440    0.08078500    0.46456500
Se   21.70443000    7.38913000   13.21156000      0.814229   -0.90710500   -0.08655800
Se   21.53597000   12.86260000    3.30902000      0.989613   -1.38371100   -0.71126600
Se   21.56028000   13.29050000   13.50403000      0.475076   -0.86393600   -0.55248200
Se   22.00060000   18.83435000    3.64253000     -0.907277   -0.14492700    0.77164900
Se   21.67560000   18.52034000   13.30162000      0.055664    0.46098600    0.19054400
Se    1.66145000    4.25003000    3.45223000     -0.008003    0.25888400    0.62789500
Se    1.05526000    4.14731000   13.44825000      1.019536    0.11636500    0.05244400
Se    1.63830000   10.00454000    3.22070000      0.258301    0.68091400    0.92637800
Se    1.58908000   10.46307000   13.25772000      0.075662   -1.57847600    0.39145000
Se    1.26784000   15.81507000    3.81880000      0.672947   -0.12498200    0.14880600
Se    1.34575000   16.16385000   13.13974000      0.597411    0.34665300    0.53467900
Se    1.35830000   21.89092000    4.13257000      0.004556    0.11172700   -0.32556200
Se    1.88061000   21.37804000   13.24080000     -0.847345    0.25585300   -0.36212300
Se    7.29267000    4.53393000    3.60653000      0.229553    1.10281000    0.20091100
Se    6.86959000    4.10452000   13.72607000      0.590346   -0.12792100   -0.09015700
Se    7.12355000   10.43784000    3.67743000      0.199599    0.86238300   -0.16157800
Se    6.90681000   10.13950000   13.37753000      0.172208    0.60089200    0.25363000
Se    7.76979000   16.01946000    3.23413000      2.149482    2.13902000    0.97037500
Se    7.29155000   16.24513000   13.57037000     -0.650756   -0.26915900   -0.69766700
Se    6.96460000   21.77236000    3.75736000      0.187818    0.44225000   -0.40105000
Se    7.55638000   21.60925000   13.88127000      0.264362    1.19432500    0.25995700
Se   13.12612000    4.13449000    3.38253000      1.914398    1.44411300    1.30665500
Se   13.00284000    4.10669000   13.05553000      1.037164    0.81124200    1.06996600
Se   13.17634000   10.30328000    3.43433000     -0.828918    0.54457100   -0.15408300
Se   12.99553000   10.19901000   13.71094000      0.028957    1.03485500   -0.03975800
Se   13.05258000   15.91509000    3.59175000      0.417414   -0.23991400    0.29531900
Se   13.59484000   16.10725000   13.47198000     -0.959195    0.18929800   -0.03086300
Se   12.70344000   21.48417000    3.59278000      0.057049   -0.01065000   -0.06457900
Se   12.94316000   21.84467000   13.79113000     -0.738551    0.46814200   -0.97518600
Se   18.59583000    4.40542000    3.71894000     -0.078351   -0.66338600   -0.07789700
Se   18.70838000    4.26126000   13.71667000     -0.148755   -0.26384000   -0.40153200
Se   18.69535000   10.15660000    3.62688000     -0.044668   -0.77515900   -0.11583500
Se   18.74132000    9.79977000   12.88999000      0.235171    1.08618500    0.50225800
Se   18.85087000   15.70183000    3.86568000     -0.507541   -0.21408400   -0.37687000
Se   19.03624000   16.27766000   13.09848000     -0.789038   -0.11287400   -0.52826600
Se   18.67573000   21.83795000    3.62901000      1.208119   -0.75388300    0.85595400
Se   18.81430000   21.59059000   13.40258000     -0.329045    0.32158000   -0.45670600
