384
23.23808000 23.23808000 19.51320000
Ge    5.81448000    5.47612000    9.94674000     -0.630469    0.13578600    0.30171300
Ge    5.62849000    5.98284000   19.23565000      0.788784    1.67347600   -0.58017000
Ge    5.84864000   11.76232000    9.72439000     -0.685400    0.12209600   -0.51283700
Ge    5.59290000   11.74433000   19.39641000     -1.288815    0.50969700    0.58971300
Ge    6.38248000   17.43371000    9.86848000     -0.293468   -0.27613200    0.06349700
Ge    5.65607000   17.43443000    0.13423000      0.284697    0.24413800   -0.20561500
Ge    6.11558000   23.11192000    9.96330000     -0.920536   -0.37964200   -0.02212600
Ge    5.55923000    0.62570000   19.21124000      0.236819   -1.15706400    0.94016600
Ge   11.43890000    6.02711000   10.20993000     -1.433036   -0.00519300   -0.49927300
Ge   11.39577000    5.77186000    0.12371000      0.615254   -1.07455400    0.13777000
Ge   11.43134000   12.01451000    9.94382000      0.203066   -0.15722700   -0.03389000
Ge   11.34600000   11.59144000   19.36228000     -0.325202   -0.66467400    0.23181400
Ge   11.66089000   17.53047000    9.73967000     -0.184803    0.05185100    0.71016900
Ge   11.46522000   17.01265000   19.36619000      0.608475   -0.78740700    0.42748800
Ge   11.35551000   23.21890000    9.62763000     -0.017848    0.36389500   -0.62055100
Ge   11.76781000   22.95482000   19.38269000     -0.272256    0.82219300    0.42734700
Ge   17.22816000    5.60727000    9.52431000     -0.504879    0.05832200    0.29177100
Ge   17.67415000    5.69646000    0.17132000      0.901888   -0.61568300   -0.04020300
Ge   17.58888000   11.75166000    9.82541000     -0.289619    0.58683100    0.40536700
Ge   17.23620000   11.35745000    0.00825000     -0.764339    0.59053500   -0.36573100
Ge   17.40659000   17.48785000    9.36045000      0.880153    0.51402900    0.37181000
Ge   17.89215000   17.13379000    0.25964000      0.237157    0.06770100   -0.71078500
Ge   17.59079000   23.08087000    9.73065000      0.105935    0.76291600    0.04642100
Ge   17.92221000   22.93423000    0.01599000     -0.721186    1.23900500    0.24866300
Ge   23.11407000    5.46474000    9.67347000      0.048881    0.75038800   -0.05748800
Ge   23.02569000    5.97805000   19.45178000     -0.552951   -0.39551000   -0.63018800
Ge    0.40417000   11.57131000    9.92889000     -0.930848   -0.24813900   -0.45311600
Ge   22.94172000   11.46140000   19.25537000     -0.518092    0.84032500    0.38472800
Ge    0.45910000   17.24183000    9.32698000      1.368015    0.16598700    0.41712500
Ge   23.21265000   17.34219000    0.09587000      0.743923   -0.87177800    0.49764300
Ge    0.09576000   22.81145000    9.82764000      1.150641    0.14223500   -0.12923600
Ge   23.20690000   23.20124000    0.24144000      0.066261    0.48637600   -0.96628200
Ge    2.97547000    5.82739000    7.22868000     -0.464651    0.48268900    0.40977500
Ge    2.42608000    5.96451000   16.90138000      1.279527   -0.53832500    0.15078400
Ge    3.00148000   11.51325000    7.08315000     -0.561458    0.42944500    1.26990400
Ge    2.65234000   11.77941000   16.74805000      0.000710   -0.03581300    0.90858400
Ge    3.52596000   17.51000000    7.30169000     -0.303566    0.54160100   -0.97500900
Ge    2.97233000   17.42913000   17.08729000     -0.254141   -1.54034300    1.31288500
Ge    3.17963000   23.19111000    7.41646000     -0.458291    1.24751500    0.65812400
Ge    2.62123000   23.23620000   16.85929000      0.655405   -0.00888400    1.42804700
Ge    8.67572000    6.33554000    7.54051000     -0.778662   -0.37070300    0.75774800
Ge    8.63404000    5.83664000   16.94810000      0.146728    0.38390400    0.71399300
Ge    8.90674000   11.95052000    7.31230000     -0.014471   -0.89429800   -0.08184700
Ge    8.09394000   11.94808000   17.01218000      1.485913   -1.26685800    0.83404100
Ge    8.68696000   17.65895000    7.17839000      0.663843   -1.53263200    0.21214200
Ge    8.74137000   17.19154000   17.33521000     -0.718087    0.36864200   -0.55977800
Ge    8.34920000   23.04426000    7.01388000      0.375235    0.50287900    0.59226300
Ge    8.76858000    0.20818000   17.30498000     -0.078807    0.32303900    0.55258000
Ge   14.34760000    5.66388000    7.31301000     -0.925694    0.58769900   -0.35899600
Ge   14.48285000    5.65645000   17.16888000     -0.041899    0.95550600    0.62286000
Ge   14.53974000   11.88703000    7.76737000     -0.430159   -1.17089200   -0.13106700
Ge   14.60121000   11.51982000   16.97734000      0.043184   -0.48513900    0.71495000
Ge   14.37833000   17.17431000    7.45049000      0.518133    0.61366900   -1.38898100
Ge   14.83006000   17.60149000   17.27209000      0.380454   -1.48037900    0.07143300
Ge   14.58112000    0.07239000    7.34855000      0.928105   -0.42973800    0.46161500
Ge   14.80601000    0.01195000   16.89746000      0.373766   -0.66736700   -0.24309400
Ge   19.96856000    5.80538000    7.44726000      0.168950    1.46365300   -0.77389600
Ge   19.96414000    6.12747000   17.03427000      1.485592   -1.32526200    0.00526700
Ge   20.61185000   11.50853000    7.39405000      0.480833   -1.50935600    1.05894300
Ge   19.95420000   11.74252000   17.15021000     -0.281071    0.69042800   -1.33797600
Ge   20.49813000   17.25427000    7.30983000      0.165873    0.08807900   -0.86575400
Ge   20.16547000   17.32067000   17.10574000      0.441379    0.17557300    0.85381300
Ge   20.06623000   23.03132000    7.30887000     -0.084986   -0.69737100   -0.35170200
Ge   20.81827000   22.95146000   17.21086000     -0.731989    0.02504200   -0.61393600
Ge    2.92973000    2.85051000    4.82304000     -0.870934    0.16378500    0.41245900
Ge    2.76817000    2.98727000   14.61206000      0.273028   -0.26100000   -0.12096400
Ge    3.11842000    8.66505000    4.89860000     -1.431513    0.48028400   -0.52830400
Ge    2.83065000    8.66701000   14.54542000      0.235004    0.56739200    0.46456200
Ge    3.16196000   14.66781000    4.73916000     -0.244825   -0.09343000   -0.10525900
Ge    3.01219000   14.85786000   14.57642000     -0.474026   -1.15228400   -0.73331300
Ge    3.22402000   20.59888000    4.98014000     -1.133814   -1.48207700   -1.20715100
Ge    3.26913000   20.15469000   14.76310000     -1.176461    0.78466400    0.36551600
Ge    8.76722000    3.40651000    5.19541000     -0.881365   -1.08423200   -0.93040100
Ge    9.15122000    3.01655000   14.73863000     -2.042471   -0.58628800   -0.20907700
Ge    8.56907000    9.00953000    4.98676000     -1.285686   -0.22617600   -0.16331000
Ge    8.24950000    8.77652000   14.82355000      0.208110    0.56876000   -1.35010900
Ge    8.97718000   14.56403000    4.83324000      0.101113    1.32550400   -0.31088300
Ge    8.58237000   14.71957000   14.72881000     -0.143832    0.22606400    0.21476900
Ge    8.45390000   20.19001000    4.47408000      0.046935   -0.76500300   -0.36731500
Ge    8.74184000   20.43699000   15.31474000      0.703291   -0.98553800   -1.26237100
Ge   14.70902000    2.68834000    4.78534000      0.128083    0.99080100   -0.20990800
Ge   14.65889000    3.00644000   14.46756000     -0.163412   -0.54462600   -0.40729500
Ge   14.21357000    8.86141000    5.10079000      0.015043    0.38931800   -0.25311100
Ge   14.44649000    8.59129000   14.70125000     -1.251281   -0.89132300   -1.22174600
Ge   14.50855000   14.44046000    4.89813000      1.902730    1.17844700   -0.23378500
Ge   14.80178000   14.55492000   14.78900000      1.076687    0.16251200   -0.37373200
Ge   14.26777000   20.05826000    4.72018000      0.825853    0.92538500   -0.11935600
Ge   14.52041000   20.05423000   14.40827000     -0.170370    1.35264300    0.92918300
Ge   20.20571000    3.02300000    4.84936000      0.927755   -0.56091100    0.38483200
Ge   20.32062000    2.67692000   14.74260000     -0.164886    1.85163000    0.79666400
Ge   20.19052000    8.70969000    4.99910000     -0.673319   -0.77977300   -0.32576900
Ge   20.06642000    8.81143000   14.46161000      0.517299   -0.20654500   -0.83117300
Ge   20.33522000   14.11472000    4.84507000      0.935434   -0.32107700    0.00192300
Ge   20.05937000   14.53958000   14.39865000     -0.419925   -0.16852300    0.49057900
Ge   20.43062000   20.25614000    4.75660000      0.092663   -1.16251200    0.62472100
Ge   20.32159000   20.27711000   14.55945000      0.598295    0.46111700   -0.12302600
Ge    5.82882000    3.33344000    2.15596000      0.637946   -0.66249700    1.22773500
Ge    5.68443000    2.42729000   12.42718000     -0.565723    1.28406900    0.28633800
Ge    5.47179000    9.20720000    2.45495000      0.518864    0.00369500   -0.52810400
Ge    5.72540000    8.58216000   11.97907000     -0.363890    0.86685800    0.37614000
Ge    6.00493000   14.78843000    2.29265000      1.617903   -0.82528000    1.72361200
Ge    5.84700000   14.61323000   12.21225000     -0.661620    0.31122000   -0.27725500
Ge    5.54732000   20.57375000    2.03294000      1.210413    0.46667400    0.44623600
Ge    6.19335000   20.24987000   12.65402000      0.760324    0.12415600   -0.38115300
Ge   11.55757000    2.71509000    2.35408000     -0.202505    0.71924200    1.76595600
Ge   11.64719000    2.42131000   12.22979000     -0.308471    1.13026900   -0.19217100
Ge   11.45609000    9.01154000    2.38068000     -1.125125   -1.79403900   -0.27210200
Ge   11.27230000    9.22744000   12.20156000     -1.396994    0.77070200    1.21366600
Ge   11.78101000   14.20032000    2.59195000     -0.014812    0.82746200   -0.59033500
Ge   11.87727000   14.45841000   12.54947000      0.049785    1.31348100   -0.40589500
Ge   11.44512000   20.03325000    2.05714000     -0.024757    0.76728100    0.07280000
Ge   11.39815000   20.54523000   12.46688000     -1.071498   -0.58806800   -1.62736400
Ge   17.53362000    2.82236000    2.23699000     -0.146481   -0.69140200    0.59086600
Ge   17.52147000    2.82460000   12.24859000      0.328778    0.37723800    0.27843600
Ge   17.37302000    8.50317000    2.44020000     -0.409580    0.39918200    0.60552600
Ge   17.04061000    8.46036000   11.81936000      0.807006   -0.93742200    0.28127500
Ge   17.41308000   14.51914000    2.56545000     -0.715158   -1.02031300   -0.75122700
Ge   17.72233000   14.83715000   11.95064000     -0.329423   -0.36579400    0.11006300
Ge   17.43821000   20.10348000    2.39780000     -0.220067    0.14533900    0.07964000
Ge   17.37915000   20.35322000   11.93766000      0.519185   -0.75491400    0.44629300
Ge   23.17119000    2.88882000    2.40641000      1.404506    0.17570100    0.82822500
Ge   22.99216000    2.68367000   12.07862000     -0.228569    0.14327000    0.44878200
Ge   23.15702000    8.67470000    2.35093000      0.412150   -0.23639600    0.79273900
Ge    0.21017000    8.71311000   12.06352000     -0.283759    0.44952000    0.48216800
Ge   23.23174000   14.33825000    2.50802000      0.457382    0.68460400   -0.45940500
Ge   23.06060000   14.70892000   12.27376000      0.770341   -0.55206100   -0.47339900
Ge    0.25975000   20.32183000    2.67269000     -0.436590   -1.42741500   -0.19972400
Ge   23.17238000   19.91441000   12.19405000      1.118970    0.65076000   -0.12711300
Se    1.44122000    1.43138000    1.30779000      0.687603    0.19595200    0.03249100
Se    1.38415000    1.28023000   11.10450000     -0.215506   -0.38022500   -0.55123600
Se    1.36871000    7.10787000    1.23805000      0.245495    0.25912200    0.06796100
Se    1.36196000    6.95348000   10.88135000      0.441519   -0.00425200    0.00026700
Se    1.23664000   12.83390000    1.03535000     -0.005242    0.30439100    0.20015500
Se    1.53592000   13.11013000   11.50407000     -0.607121   -0.01070700   -0.85302500
Se    1.51382000   18.78376000    1.29604000      0.012713    0.15544200   -0.03838800
Se    1.58437000   19.08828000   10.62368000     -0.186363   -0.73821400    0.01464100
Se    7.20975000    1.71315000    0.99681000     -0.069870    0.41710700    0.27087700
Se    7.46379000    1.36477000   11.19241000      0.128544    0.38257700    0.29266900
Se    6.92155000    7.95844000    0.71746000     -0.776602   -0.65716900    0.53605900
Se    7.28842000    7.02130000   11.15869000     -0.827698   -0.10439500   -0.17019600
Se    7.11587000   13.28551000    0.78237000      0.845383    0.05893900    0.42463600
Se    7.32926000   13.33403000   10.90322000      0.309646   -0.73650700   -0.42287100
Se    7.20211000   19.05011000    1.20017000     -0.722646   -0.34584400   -0.43540300
Se    7.80219000   18.70698000   11.41036000     -0.750981    0.55675800   -0.14328200
Se   13.11379000    1.32050000    1.31833000     -0.265379   -0.79626900   -0.48523500
Se   13.06415000    1.18905000   10.71371000     -0.497718    0.69264800    0.55723200
Se   12.78958000    6.98287000    1.55430000     -0.001883    1.04298700    0.38851700
Se   12.69060000    7.87834000   11.02456000      1.439093   -0.70762000   -0.37878400
Se   12.99037000   12.63487000    1.18333000      0.458958    0.51031900    0.29218200
Se   13.23281000   12.88971000   11.32572000     -0.736998    0.39029200   -0.03854200
Se   12.89787000   18.75059000    0.76663000      0.755956   -0.56154100    0.20863500
Se   12.88504000   19.10562000   11.13561000      0.075515    0.41640300   -0.29577800
Se   19.26926000    1.65804000    0.98833000     -0.976588   -0.62115200    0.12308000
Se   19.17882000    1.64353000   10.96622000     -1.055501   -0.87842600   -0.48682500
Se   19.21594000    7.09484000    1.56475000     -1.564359   -0.01391900   -0.24733600
Se   18.62685000    7.19642000   10.47727000      0.279132    0.51797500    0.74479200
Se   18.57462000   12.90259000    1.20721000      1.079904    0.05807400    0.35691200
Se   19.20822000   13.43737000   10.67383000     -0.883407   -0.48644700    0.38772200
Se   19.18780000   18.68837000    1.50300000     -0.164733    0.19583400    0.20556900
Se   18.97656000   19.10414000   10.56053000     -0.998708   -0.73461000    0.17032800
Se    4.26948000    4.48706000    0.78339000     -0.960791   -0.65576700    1.05817600
Se    4.10238000    4.01060000   11.15164000      1.345260   -0.01469900   -0.02077400
Se    3.94900000   11.00220000    1.45875000      0.732864   -1.69481000   -0.07185600
Se    4.29300000   10.18053000   10.69034000      0.867514   -0.15285500    0.20653400
Se    4.24312000   15.91890000    1.50937000     -0.980445    1.41841000   -1.07906000
Se    4.56381000   16.02909000   10.66821000      0.425061   -0.04461700    0.80728500
Se    4.29336000   22.39648000    1.33156000     -0.386047    0.47875500   -0.88599900
Se    4.68801000   21.68511000   11.44595000      0.183930    0.14356500   -0.43968500
Se    9.96848000    4.24486000    1.33554000      0.140278    0.02820900   -0.14699000
Se    9.96433000    4.42184000   11.48899000      1.273781   -0.49814300   -0.21444500
Se    9.78378000   10.20580000    1.09174000      0.916295   -0.03095700   -0.05627800
Se    9.69578000   10.82374000   11.12490000      0.639123   -0.32334000    0.10167000
Se   10.15089000   15.37785000    1.21379000      0.998758    0.78077400   -0.18811000
Se   10.47629000   16.34203000   11.45026000     -0.074677   -0.97332900    0.00942800
Se    9.99487000   21.40528000    0.71447000      0.787303    0.97422900    0.26567500
Se    9.89901000   22.14057000   11.05237000     -0.003856   -1.25512100    0.89541200
Se   16.07152000    4.10483000    0.86839000     -0.349069   -0.14420300    0.71913100
Se   15.99153000    4.29404000   11.04132000     -0.345193   -0.28161400    0.08435800
Se   15.71022000    9.83581000    1.01886000      0.923966   -0.21638400    0.31521700
Se   15.96998000   10.45132000   11.33871000     -0.682378    1.36469200   -1.19753500
Se   16.14536000   15.89941000    1.16979000     -0.899030    0.04712300    0.35422300
Se   16.09997000   16.13602000   10.76944000     -0.358771   -0.24186800    0.24389500
Se   16.14336000   21.62178000    0.99054000      0.815124    0.06284400    0.39876900
Se   15.84096000   21.84751000   11.07925000      0.226661    0.78111600   -0.79677000
Se   21.77526000    4.27667000    1.25766000     -0.977394    0.89850400   -0.80215400
Se   21.51934000    4.25164000   10.91123000      0.373396   -0.62241600    0.26648600
Se   21.61973000    9.72237000    0.88931000      0.031043    0.94190100    0.21149100
Se   21.89671000   10.07221000   10.91304000      0.681186    0.60767200   -0.31250600
Se   21.76798000   15.83045000    1.30386000      0.350461   -0.00369800    0.19520500
Se   22.07900000   16.29470000   10.75097000     -0.590614   -0.50580900    0.31224500
Se   21.95637000   21.76364000    1.62778000     -0.723376   -0.02339600   -0.13298800
Se   21.81141000   21.59954000   11.15545000     -0.143699   -0.26681900    0.19830600
Se    1.32093000    4.31655000    8.17000000      0.104081   -0.40693400    0.18974300
Se    0.92996000    4.39439000   17.97235000      0.286711    0.48869300    0.35629600
Se    1.48288000    9.97997000    8.35079000     -0.050953    0.79964300    0.16464800
Se    1.31465000   10.24570000   18.12784000      0.435375   -0.42759600   -0.78278000
Se    2.22007000   15.75561000    8.26950000     -0.968830    0.60158700    0.38315800
Se    1.65952000   15.89278000   18.57919000      0.059196    0.49535800   -0.41374700
Se    2.03861000   21.58175000    8.69935000     -0.920250    0.22888900    0.61593700
Se    1.30270000   21.79841000   18.29673000      0.078432   -0.07756000    0.02178500
Se    7.74945000    4.41817000    9.06680000     -0.314779    0.43639200   -1.05493800
Se    7.01591000    4.31207000   18.12653000      0.661537    0.92592800   -0.27103500
Se    7.23177000   10.37399000    8.18164000     -0.058191    0.96717300    0.81905300
Se    6.93677000   10.22811000   18.33192000      0.880293   -0.23482900   -0.61200300
Se    7.66959000   15.85583000    8.57752000      0.148651    1.25100300   -0.21494500
Se    7.28511000   15.81922000   18.67540000     -0.492350    0.37299300   -0.31280500
Se    7.14863000   21.59468000    8.49755000      0.469876   -0.49989800   -0.12914800
Se    7.02419000   22.18441000   18.31212000     -0.174308   -0.30273000    0.27867200
Se   12.52823000    4.52870000    8.66552000      0.602407    0.08272300   -0.06747300
Se   13.00055000    4.33092000   18.39898000     -0.348283   -0.43940600    0.58292900
Se   12.95303000   10.47809000    8.90229000      0.234807   -0.27227300   -0.20470900
Se   12.98654000   10.15280000   18.33680000      0.472066   -0.00761000   -0.52519900
Se   13.15536000   15.81457000    8.94528000     -0.267712    0.25188600    0.00321600
Se   13.21398000   15.74655000   18.11026000      0.069584    1.22690800    0.24404800
Se   13.26530000   21.92509000    8.89415000      0.184648   -0.48056800   -0.79311000
Se   13.47369000   21.74656000   18.23124000     -0.370190   -0.20918300    0.00876200
Se   18.66806000    4.15637000    8.37309000     -0.170309   -0.84602900    0.08100900
Se   19.14893000    4.25424000   18.39824000     -0.019334    1.04789600   -0.32072300
Se   19.14462000   10.20186000    9.15925000      0.969861   -0.31587900   -1.35571100
Se   18.92519000   10.07591000   18.40416000     -0.425865   -0.35746000    0.24575300
Se   19.03999000   15.84976000    8.58643000     -0.125819    0.45028000   -0.19351900
Se   19.55482000   15.52884000   18.92085000     -1.078182    1.64434600   -1.10484100
Se   18.82422000   21.24451000    8.60159000      0.168731    1.46034000   -0.34795900
Se   19.53326000   21.53303000   18.66493000      0.312485   -0.83137000   -0.51136800
Se    4.88107000    1.34861000    8.55084000     -0.724076    0.04088400    0.06015800
Se    3.98589000    1.80535000   17.99255000     -0.559751   -0.13778100   -0.42565500
Se    4.44246000    7.12775000    8.65657000      0.130504   -0.59076600    0.10754300
Se    3.89232000    7.45411000   18.28273000      0.085735   -0.82260200   -0.35110100
Se    3.87616000   13.16443000    8.77397000      0.847020   -1.06978400   -0.58845600
Se    4.06350000   13.13590000   18.15768000      0.098232    0.28956100   -0.16527300
Se    5.03895000   18.98085000    8.54308000     -0.354556   -0.32490200    0.07565800
Se    4.22163000   18.94460000   18.30624000      0.978758    0.10148000    0.66804500
Se    9.71822000    1.33934000    8.38646000      0.531590   -0.56083500   -0.13746400
Se   10.49986000    1.52591000   18.29291000      0.014275   -0.42355100    0.26789500
Se    9.76148000    7.73194000    9.16323000      0.964270   -0.88635500   -0.48105400
Se   10.59579000    7.30786000   18.15832000     -1.938989    0.11452100   -0.94192900
Se   10.59127000   13.44544000    8.16213000     -0.384173    0.03396500    0.72131800
Se   10.08448000   13.07586000   18.10639000     -0.649597    0.49455300   -0.64833300
Se   10.48379000   18.97102000    8.17955000     -0.394121    0.15782900    0.39244200
Se    9.92248000   18.66547000   18.69107000      0.339058    0.14064600   -0.41542400
Se   16.49887000    1.49555000    8.16991000     -0.680321   -1.40567300    0.69587400
Se   16.36937000    1.12429000   18.28060000      0.402467    0.45076200   -0.01760100
Se   15.68020000    7.19973000    8.55567000      0.144268   -0.34018900   -0.07484800
Se   16.22580000    7.02033000   18.48241000     -1.095513    0.66062600   -0.97345300
Se   16.43552000   13.13847000    8.10416000      0.563932    0.28545600    1.20909300
Se   16.03053000   13.08304000   18.13353000      0.215020   -1.23694400    0.32772000
Se   15.75239000   18.93035000    8.38019000      0.154516   -0.14421500    0.01520300
Se   16.51114000   18.80837000   18.61648000     -0.218250   -0.57834000   -0.39065500
Se   21.82280000    0.88363000    8.53839000      0.083190    0.88958800    0.06271100
Se   21.77147000    1.46322000   18.34396000      1.051578   -0.08808400    1.02343200
Se   21.57434000    7.03813000    8.74669000     -0.197499    0.40753000   -0.17693100
Se   21.53141000    7.67532000   18.17888000      0.002418   -1.39607500   -0.05620600
Se   22.05273000   12.95453000    8.52287000      0.653599    0.43377200    0.35915600
Se   21.64490000   13.14197000   17.95880000      0.713133   -0.23052300    0.69387900
Se   22.17457000   18.69726000    8.29465000     -0.451528    0.09723000   -0.38880600
Se   22.14853000   18.69637000   18.13181000     -1.459463    0.48461400   -1.09963300
Se    1.59220000    1.40639000    6.30046000      0.401861   -0.05770200   -0.38994200
Se    1.25200000    1.29307000   15.59604000     -0.765131    0.86320800   -0.43050900
Se    1.47949000    7.54650000    6.21101000      0.433950   -0.60631700    0.03076500
Se    1.04490000    7.27023000   15.53481000      0.284444    0.59687200   -0.29349600
Se    1.67096000   12.92449000    5.66562000      0.152740    0.27572300    0.02999000
Se    1.41806000   13.19170000   15.31380000     -0.325770    0.12770300    0.42675300
Se    1.82405000   19.06188000    6.15483000      0.769721   -0.89825600    0.50672300
Se    1.64721000   18.66267000   15.73365000     -0.886308    0.78385700   -0.59096700
Se    7.15069000    1.56881000    5.97147000      0.025706    0.56814400   -0.14171800
Se    7.38705000    1.57277000   16.08426000      0.631546    1.22007600   -0.99213800
Se    6.92111000    7.61483000    6.24743000      1.238942   -0.46803900    0.20508800
Se    6.89415000    7.40374000   16.20837000      0.376497   -0.46337400   -0.25162100
Se    7.38382000   13.30547000    6.11431000     -0.074395    0.10419600   -0.23257900
Se    6.88150000   13.24924000   15.58136000     -0.565609    0.70052700   -0.42308500
Se    7.07939000   18.80327000    5.84925000     -0.074438    0.06106800    0.17036200
Se    7.23433000   18.84772000   16.13559000      0.336651   -0.70556700    0.51271400
Se   13.25684000    1.67331000    6.34066000     -1.137235    0.14428600   -0.24810700
Se   13.35343000    1.71564000   16.09345000     -0.182624   -0.22017700   -0.38211800
Se   12.79688000    7.21314000    5.92917000     -0.028749   -0.86440600    0.68510200
Se   12.98911000    7.24662000   16.05472000      0.691570    0.00471500    0.04952800
Se   13.28084000   13.30287000    6.44466000     -1.851261    0.17307700   -0.21923800
Se   13.28176000   13.02013000   15.79713000     -0.856959    0.60064800   -0.50159200
Se   12.84335000   18.72098000    6.00164000      0.313271   -0.69348800    0.71123300
Se   13.22950000   19.00819000   16.27842000      0.193674   -0.01731200   -0.97477700
Se   18.74848000    1.45582000    6.03165000      0.716344    0.02074800    0.15642100
Se   19.17446000    1.08187000   16.09675000     -0.549640   -0.02804900   -0.15648700
Se   18.50565000    7.61460000    6.44066000      1.168824   -0.50979100   -0.20145300
Se   18.56531000    7.27351000   15.51479000     -0.349881    0.30707200    0.05898600
Se   18.98722000   12.68922000    6.34212000     -0.631103    1.06594700   -1.14395900
Se   18.41320000   13.28035000   15.90591000      0.688976   -0.27543700   -0.25023600
Se   19.00700000   18.99476000    6.42940000      0.514700   -0.24420900   -0.66149500
Se   18.73403000   18.95215000   15.72578000      0.152930   -0.31807800    0.59306400
Se    4.34787000    4.32802000    6.01423000      0.342884    0.39763400    0.16841500
Se    4.26595000    4.67345000   15.57836000     -1.293683   -0.07566700    0.43064500
Se    4.57387000    9.98971000    6.16302000      0.459505    0.43677300    0.02835400
Se    4.27384000   10.34291000   15.91587000     -0.178644   -1.17706100   -0.74709700
Se    4.76227000   16.27938000    5.57586000     -0.232803   -0.00803100    0.58708700
Se    4.47037000   15.83319000   16.10158000      0.434782    0.36589900    0.06920400
Se    4.63082000   21.82011000    6.24878000      1.662760    0.32023500   -0.05033100
Se    4.37830000   21.83751000   16.12887000      0.104939   -0.65367000   -0.36936700
Se   10.19967000    4.71015000    6.50804000      0.046846    0.42452100   -0.01983600
Se   10.36892000    4.87902000   15.55602000     -0.101952   -0.10099900    0.21951000
Se   10.18760000   10.09123000    6.23831000      0.218257    0.82016700    0.45870300
Se    9.58269000   10.41480000   15.81789000      0.389908    0.31117500    0.46892200
Se   10.43215000   16.29313000    6.00810000     -1.184799   -0.46340700   -0.21345400
Se   10.24606000   15.66614000   16.14797000     -0.654102    0.81189900    0.06722000
Se    9.77090000   21.58230000    5.77188000      1.276082    0.49772000    0.63481100
Se   10.16151000   21.74366000   16.58924000      1.029497   -0.21029300   -0.25479900
Se   16.00042000    4.40512000    6.08087000     -0.508441   -0.22643300   -0.05161700
Se   15.97101000    4.34838000   15.96761000      0.867987   -0.01827900   -0.55309600
Se   15.62901000   10.21803000    6.48337000      0.418873   -0.39153000   -0.41398100
Se   15.91357000   10.14927000   15.45185000      1.134616    0.96634000    0.93179000
Se   16.13813000   16.07919000    6.05946000     -1.419108   -0.33688600    0.06137200
Se   16.35258000   15.98822000   16.00257000     -0.820121    0.44153200    0.37586000
Se   15.82204000   21.74804000    5.94516000     -0.642978   -0.33500400   -0.32550400
Se   16.15084000   21.58439000   15.57746000     -0.815496    0.12035700   -0.09687500
Se   21.51671000    4.83641000    5.95767000     -0.168124   -0.97910500   -0.36424300
Se   21.61790000    4.55557000   15.80881000     -0.719915   -0.23094400   -0.04176800
Se   21.88931000    9.97687000    5.98742000      0.114775    0.40521700    0.50381000
Se   21.34714000   10.41799000   15.70127000      0.118210   -0.14232900   -0.13665200
Se   21.92520000   15.78623000    5.82578000     -0.972941   -0.02568500    0.25817500
Se   21.45567000   15.78241000   15.86505000      0.811671    0.12007900   -0.14168500
Se   21.69689000   21.79607000    5.96700000      0.248936    0.49212500    0.30682000
Se   22.13700000   21.55584000   15.83091000     -0.505316   -0.59585500   -0.39216000
Se    4.64307000    1.77374000    3.71828000      0.617659   -0.55291800   -0.92147700
Se    4.12168000    1.11618000   13.79733000      0.250363    0.78510500   -0.63713000
Se    4.57136000    7.29816000    3.69355000      0.314913   -0.08026700   -0.58878900
Se    4.16448000    7.20852000   13.22022000      0.234958   -0.06091800    0.08838200
Se    4.79661000   13.13483000    3.69314000     -0.258773    1.33046900    0.10136600
Se    4.27020000   13.13925000   13.27601000      0.270812    0.85526000    0.30415200
Se    4.12511000   19.17356000    3.19172000     -0.445594   -0.40432300    0.97209800
Se    4.78452000   18.69036000   13.90794000      0.934379   -0.38940500   -0.80022600
Se   10.01793000    1.65183000    4.17775000      0.673777    0.37405300   -1.10705400
Se   10.38424000    1.08984000   13.86878000      0.049590    0.89471600   -0.31833400
Se    9.74936000    7.60481000    3.58179000      0.861778   -0.44052300   -0.37109100
Se   10.02947000    7.65227000   13.53385000     -0.422610   -0.45821200    0.13079400
Se   10.23318000   12.81996000    3.74283000     -0.100296    0.12877500    0.33492800
Se   10.03936000   13.27540000   13.62852000      0.798983   -0.71304600   -0.54862200
Se    9.95601000   18.68102000    3.21683000     -0.555232   -0.34609600    0.61132300
Se   10.44328000   19.00654000   13.93822000     -1.142173   -0.04557300    0.65084500
Se   16.34087000    1.21422000    3.81260000     -0.115755    0.44668400   -0.55870400
Se   15.96884000    1.25654000   13.23710000     -0.184164    0.83171000    0.44779600
Se   15.59233000    7.40908000    3.86886000      1.068659   -0.63191100   -0.73594500
Se   15.76137000    7.04731000   13.27229000     -0.396487    0.31714700    0.12318800
Se   15.98722000   12.97503000    3.60410000     -0.692144   -0.06617700    0.47763000
Se   16.33919000   13.26510000   13.30566000     -0.004125    0.39763600   -0.10247300
Se   15.64770000   18.67738000    3.27278000      0.349031    0.36325800    0.23169800
Se   15.82900000   18.67850000   12.88843000      0.165751    0.22141000    0.29597000
Se   21.83767000    1.51184000    3.74405000     -0.464187    0.16609300    0.43429900
Se   21.54891000    1.26387000   13.42580000      0.818810   -0.54997600   -0.59611200
Se   21.69639000    7.12822000    3.65886000      0.054644    1.09115000    0.18077600
Se   21.80083000    7.45049000   13.28784000     -0.261576   -0.22046400    0.50680800
Se   21.67014000   12.72473000    3.17648000     -0.690279    0.27723200    1.14774800
Se   21.79181000   13.09995000   13.45330000     -0.527818    0.17531100    0.02248800
Se   22.05584000   18.64353000    3.80359000     -0.351524    1.08419400   -0.02721100
Se   21.79349000   18.57891000   13.54597000     -0.247997   -0.03971500    0.14393800
Se    1.58993000    4.33878000    3.58166000     -0.571614   -0.10348000   -0.17500400
Se    1.04925000    4.21625000   13.45219000      0.185989    0.01677800   -0.17340200
Se    1.76024000   10.11113000    3.30961000     -0.576083   -0.58669300    0.62456900
Se    1.66936000   10.34200000   13.33672000     -0.605970   -0.79465000   -0.52510400
Se    1.31437000   16.07522000    3.68318000      0.600441   -1.44731800    0.11125600
Se    1.46779000   16.15510000   13.24340000      0.178271    0.51163800    0.26528300
Se    1.42867000   21.79724000    3.99401000      0.214711    1.18296300    0.26484500
Se    1.79039000   21.32237000   13.29481000     -0.648021    0.09579800   -0.30275200
Se    7.36000000    4.68498000    3.61041000     -0.275982    0.17239500   -0.13165400
Se    6.83092000    4.20426000   13.75621000      0.860292   -1.14138300   -0.26874800
Se    7.17451000   10.54041000    3.70174000     -0.359782   -0.12110700   -0.27132700
Se    7.03649000   10.22896000   13.22816000     -0.151669   -0.80089700    0.27316500
Se    7.83632000   16.31653000    3.36801000     -0.850415   -1.75592900    0.11608200
Se    7.25545000   16.16867000   13.38807000      0.076550    0.05130500    0.08990100
Se    6.95753000   21.75897000    3.67791000     -0.300246    0.39365900   -0.88086900
Se    7.70462000   21.91776000   13.79270000     -0.795234   -0.61956000   -0.26142200
Se   13.26081000    4.23896000    3.58809000     -0.283023   -0.82105200   -0.30053300
Se   13.04102000    4.23190000   12.98843000      0.324239   -0.34488900    1.15002500
Se   13.10231000   10.24091000    3.39024000      0.496907    0.95906200    0.84607100
Se   12.81618000   10.23046000   13.73689000      0.505337   -0.02139800   -0.17074100
Se   13.05273000   16.00929000    3.78874000     -0.155053   -1.14484400   -0.34642100
Se   13.58588000   16.03042000   13.42673000     -0.888594   -0.15857400    0.07912400
Se   12.58164000   21.45081000    3.59574000      0.530483    0.23283900    0.08153500
Se   12.78607000   21.88011000   13.62034000      1.941552    0.33871400    0.91205200
Se   18.73053000    4.36989000    3.65694000     -0.393340    0.38436100   -0.39216500
Se   18.74978000    4.33543000   13.86299000     -0.183126   -1.35441300   -0.80441900
Se   18.61388000   10.13001000    3.80281000      0.080848   -0.20286900   -0.32634200
Se   18.64009000    9.88134000   12.83449000      0.617631    0.48304000    1.03387800
Se   18.92024000   15.71186000    3.78061000      0.549778    0.90018500    0.58706100
Se   19.16460000   16.39080000   13.04081000      0.074757   -0.76976100    0.25833100
Se   18.87066000   21.63793000    3.66055000     -0.514361   -0.11677900   -0.32402200
Se   18.94847000   21.77921000   13.08183000      0.283583   -0.45331100    0.63657800
