384
23.23808000 23.23808000 19.51320000
Ge    5.67117000    5.49876000   10.01201000      0.832828   -0.56184300    0.38951800
Ge    5.75030000    6.12359000   19.17130000     -0.630664   -1.53629400    0.63151300
Ge    5.84277000   11.69880000    9.52605000     -0.676658    0.79225000    1.10441800
Ge    5.35161000   11.95954000   19.42993000      1.224794   -0.03797300   -0.21547800
Ge    6.31839000   17.31368000    9.75480000      0.149504    0.66245700    1.02298300
Ge    5.80272000   17.48021000    0.17919000     -0.785219   -0.10677700   -0.73755400
Ge    6.10304000   23.18850000    9.88217000      0.408680   -0.36779800   -0.62635500
Ge    5.73384000    0.51277000   19.20980000     -1.209755   -0.17743400    1.00518400
Ge   11.37763000    5.96649000   10.21081000      0.602915    0.68958800   -1.39870000
Ge   11.47944000    5.59435000    0.12038000     -0.022510    0.90386100    0.10967700
Ge   11.46612000   11.83064000    9.85527000     -0.114920   -0.66074900    0.00293600
Ge   11.11932000   11.44578000   19.47493000      1.628875    0.99477300   -0.42721200
Ge   11.75421000   17.53103000    9.76128000      0.419550   -0.27564800    0.60012300
Ge   11.41315000   16.81252000   19.19809000      0.217539    1.17320500    1.40785300
Ge   11.36914000    0.03063000    9.42628000      0.088333   -0.80446200    1.11127900
Ge   11.64956000   22.93163000   19.43116000      0.457507    0.04899300   -0.47214400
Ge   17.19386000    5.64089000    9.54954000     -0.181172    0.51289700   -0.05736100
Ge   17.55811000    5.67649000    0.27167000     -0.876874    0.58887400   -0.30825400
Ge   17.56070000   11.86616000    9.88890000      1.272942    0.20478100   -0.65104600
Ge   17.23023000   11.52731000    0.08040000      1.304990   -0.51990600    0.80433100
Ge   17.49670000   17.72637000    9.56500000     -0.964817   -1.73836100   -1.39248300
Ge   17.84450000   17.16775000    0.17706000     -0.397537   -0.09925600   -0.22798700
Ge   17.67584000   23.05970000    9.90688000     -0.254088   -0.77755400   -0.40195000
Ge   17.65038000   22.97565000    0.16818000      0.195826   -0.22135100   -1.58120800
Ge    0.02193000    5.54368000    9.71574000     -0.686605    0.05913300   -0.32486400
Ge   22.94629000    5.79832000   19.30150000     -0.153194    0.70372600    0.46289700
Ge    0.10493000   11.50173000    9.82240000      1.522399    1.07914100    0.33121300
Ge   22.95700000   11.60855000   19.21593000      0.849447   -0.96661300    0.80952800
Ge    0.49129000   17.14300000    9.34627000     -2.237197   -0.36165500    0.76355600
Ge    0.01064000   17.22297000    0.18676000     -0.161806    0.94576800   -1.06366200
Ge    0.25685000   22.78533000    9.96958000     -0.806976    1.05215200   -0.58907800
Ge   23.18924000   23.23186000    0.00834000      0.354666   -0.49203000    1.25041100
Ge    3.01390000    5.92040000    7.12868000     -0.409904   -1.17703000    0.45741300
Ge    2.62111000    5.84160000   16.86438000     -0.709256    0.45779300    0.22978200
Ge    2.89567000   11.44045000    7.28458000     -0.006194    0.21326500   -0.98052500
Ge    2.66679000   11.74040000   16.92427000      0.318897   -0.39907200   -0.31562600
Ge    3.46060000   17.50218000    7.25393000     -0.424295    0.81165900    0.34220300
Ge    2.99383000   17.42350000   17.37368000      0.652733    1.13853100   -1.11647500
Ge    3.08285000    0.04833000    7.33322000      0.947099   -0.93812700    0.83410500
Ge    2.78079000   23.16608000   16.96632000     -0.900516   -0.24849700   -0.35623600
Ge    8.46725000    6.26842000    7.68698000      1.488697    0.71825900    0.06827100
Ge    8.75244000    5.90046000   17.10590000     -0.723061    0.23806800   -0.65104200
Ge    8.92323000   11.87360000    7.28882000     -0.751309    1.25590500    0.89269300
Ge    8.24390000   11.88956000   17.07280000     -0.991898    0.90032700   -0.51826900
Ge    8.89234000   17.71959000    7.17886000     -0.642556    1.14138900    0.14725600
Ge    8.77737000   17.22214000   17.11567000     -0.461529    1.33476600    0.12981100
Ge    8.38287000   22.94338000    7.02270000      0.571792    0.60137600   -0.24070900
Ge    8.71268000    0.22911000   17.25720000      0.118150   -0.95004200   -0.63163800
Ge   14.19305000    5.64563000    7.38396000      0.557607   -0.33995300    0.25915200
Ge   14.25377000    5.72155000   17.29236000      1.371643   -0.50668600    0.40462800
Ge   14.43273000   11.84041000    7.71435000      0.083663    0.37492400   -0.75488000
Ge   14.64051000   11.55845000   17.20889000     -0.961569   -0.14202500   -1.19973600
Ge   14.37677000   17.23646000    7.14984000      0.060499   -0.00078500    1.91444400
Ge   14.86314000   17.45373000   17.00194000     -1.156810   -0.21558700    0.91585100
Ge   14.48626000    0.16698000    7.49896000     -0.441626   -0.26744400   -0.96153200
Ge   14.78182000   23.19183000   16.84164000     -0.229006    0.01954200    0.01958500
Ge   19.99143000    5.96958000    7.41108000      0.683625   -2.17308200    0.64337600
Ge   20.01739000    5.98364000   17.01765000     -0.164085   -0.15776400   -1.13904100
Ge   20.66728000   11.42823000    7.49035000     -0.497204    1.57179500   -0.21404800
Ge   19.94162000   11.81135000   17.09486000      0.468634   -0.60755500    0.19080600
Ge   20.36836000   17.09203000    7.22615000      0.409597    0.09220500   -0.03021400
Ge   20.27074000   17.09225000   17.13969000      0.370383    0.81631900   -1.26374500
Ge   19.98073000   22.86789000    7.24881000      0.679251    1.12664400    0.19792000
Ge   20.85072000   22.93465000   17.14398000     -1.212713    0.86939500   -0.30006300
Ge    2.79028000    2.91729000    4.79255000      1.214881   -0.11604200   -0.18564400
Ge    2.69110000    2.95658000   14.52334000      0.363582    0.36930300    0.59579300
Ge    2.95019000    8.59619000    4.80233000      1.381347    0.21608700    0.57557000
Ge    2.91389000    8.71023000   14.69105000     -1.278932   -1.32680200   -0.77433400
Ge    3.06439000   14.73624000    4.66066000      1.108948    0.86628000    0.99383800
Ge    3.09373000   14.69118000   14.57372000      0.061312    0.88433500    0.59243800
Ge    3.22702000   20.45266000    4.81183000     -0.011930    1.31643100    0.52141500
Ge    3.04301000   20.22174000   14.80672000      0.775511   -0.29760000   -0.84665900
Ge    8.69009000    3.44044000    5.12415000      0.247504    0.89648900   -0.13324600
Ge    8.92091000    2.94040000   14.75982000      0.880327   -0.14394600   -0.71016600
Ge    8.34366000    8.93985000    4.98240000      0.545246    0.07090200   -0.01325400
Ge    8.10439000    8.88843000   14.81779000      0.601799   -0.91560000   -0.02950800
Ge    8.85458000   14.75983000    4.91942000      0.333560   -0.94627200    0.26506900
Ge    8.59833000   14.71901000   14.66858000      0.050995   -0.48804900   -0.32354100
Ge    8.44259000   20.11539000    4.39446000     -0.306103    1.01899200    0.59211900
Ge    8.80057000   20.41041000   14.95580000     -1.161996    1.15476700    1.51873100
Ge   14.79167000    2.77489000    4.81771000      0.177511   -0.14859800    0.63331400
Ge   14.65546000    3.09290000   14.49718000      0.579995   -0.56984500    0.48359100
Ge   14.27897000    8.78592000    5.01767000     -0.224722   -0.20232400   -0.57495600
Ge   14.28160000    8.60364000   14.67998000     -0.080380    1.06726000    0.25177900
Ge   14.79002000   14.64945000    4.95103000     -1.484121   -1.71649600   -0.16061300
Ge   14.96879000   14.51714000   14.69633000     -0.932860   -0.14777700   -0.11807300
Ge   14.33084000   20.19815000    4.62713000      0.141043    0.18372600    0.67141900
Ge   14.55504000   20.13967000   14.48512000     -0.907355    0.13586600   -0.61209900
Ge   20.34640000    2.89129000    4.89021000     -0.782757    0.56066400   -0.08756300
Ge   20.40439000    2.80435000   14.75992000     -0.103279   -1.86688400   -0.47070400
Ge   20.07841000    8.63048000    5.05416000      0.614985    0.46197300    0.12090400
Ge   20.02644000    8.88700000   14.39824000      0.802411   -0.50101500    0.40558800
Ge   20.50895000   14.14224000    4.93057000     -0.584145   -0.60714700   -1.27957100
Ge   20.07051000   14.28757000   14.40490000      1.697961    1.04568400   -0.54049000
Ge   20.43352000   19.91651000    4.79735000     -0.971933    1.26555600    1.07975200
Ge   20.34929000   20.39257000   14.58909000     -0.113670   -0.36818900   -0.42916700
Ge    5.89631000    3.33113000    2.32434000      0.429629    0.86908100   -0.48092600
Ge    5.68773000    2.62166000   12.50373000      0.720337   -0.46410500   -1.12563100
Ge    5.61834000    9.20336000    2.28680000     -0.454361   -0.75389600    1.32439800
Ge    5.65643000    8.74951000   11.88452000      0.210731   -0.79525800    1.04742200
Ge    6.02406000   14.74047000    2.25417000      0.651501    1.15010900   -0.44178200
Ge    5.78992000   14.54297000   12.15829000      1.355151   -0.67330300   -0.24041400
Ge    5.52834000   20.71803000    1.97289000     -1.016548   -0.62289300    0.34826500
Ge    6.26098000   20.36307000   12.58489000     -0.090771    0.09586100   -0.63976900
Ge   11.47185000    2.78775000    2.59829000      1.234821    0.81335800   -0.97751300
Ge   11.74223000    2.54816000   12.24762000     -0.253203    0.18790000    0.60895300
Ge   11.39001000    8.74281000    2.33467000     -0.616502    1.35748700    1.54589900
Ge   10.99938000    9.24192000   12.27303000      1.153118   -0.42716400   -0.00887600
Ge   11.83761000   14.25777000    2.57264000     -0.375322   -0.63109100    0.76775800
Ge   11.81585000   14.51815000   12.50212000      0.252430   -1.30856000   -0.31546600
Ge   11.43905000   20.08189000    2.10304000      0.218749   -1.00865700    0.09773300
Ge   11.28360000   20.56223000   12.20469000      1.853054   -1.00226400    1.35935300
Ge   17.76361000    2.79923000    2.21508000     -1.239085    0.27854200    0.21301300
Ge   17.59302000    2.92867000   12.37781000     -0.520358   -0.91215000   -1.72477900
Ge   17.43716000    8.57445000    2.60592000     -0.853163   -0.23227000   -0.42666800
Ge   16.96766000    8.49271000   11.79809000      0.249102    1.51521100    1.01863900
Ge   17.47819000   14.40461000    2.53816000      0.292149    0.50000800    0.33654900
Ge   17.85860000   14.95281000   11.98716000     -0.740084   -0.28174600    0.02069100
Ge   17.26436000   20.07717000    2.36032000      1.014134    0.12087000    0.34104000
Ge   17.53835000   20.27027000   12.06613000     -0.598006    0.47242800   -0.14621400
Ge    0.09680000    2.97568000    2.50277000     -1.183656   -0.53143800   -0.80141900
Ge   22.88364000    2.74529000   12.13395000      1.137261   -0.57933300   -0.02770700
Ge    0.05225000    8.64572000    2.48624000      0.100270    0.12307700   -0.82570300
Ge    0.17074000    8.68256000   12.04377000     -0.238330   -0.86684200    0.32488600
Ge    0.02255000   14.49693000    2.41194000     -0.115446   -1.45558400    0.41653500
Ge   23.23772000   14.67980000   12.24119000      0.222192   -0.16072000    0.14805200
Ge    0.04551000   20.19363000    2.59796000      0.634174    0.98954900    0.01298000
Ge    0.14513000   19.88285000   12.21407000     -1.250440   -0.94754200    0.07671000
Se    1.45808000    1.38335000    1.30656000      0.083687    0.17475700    0.10382600
Se    1.41697000    1.33072000   11.14890000     -0.419563   -0.00256900   -0.23092700
Se    1.37447000    6.92426000    1.21743000     -0.619597    0.52965500    0.12452100
Se    1.50306000    6.99379000   10.85889000     -0.084873    0.38829100    0.22934600
Se    1.28070000   12.87541000    1.10407000      0.066733    0.11515000   -0.26497500
Se    1.56679000   13.00267000   11.41468000     -0.770316   -0.28115200   -0.91424200
Se    1.48804000   18.82626000    1.16202000     -0.374181    0.22588900    0.42650200
Se    1.57592000   18.74328000   10.60860000      0.880959    0.76508700    0.69424600
Se    7.25627000    1.69629000    1.13686000      0.134244    0.12448600   -0.09825800
Se    7.57619000    1.57425000   10.93517000     -1.249941    0.11232500    0.53208800
Se    6.86122000    7.86871000    0.82341000      1.327103   -0.27516300   -0.15095100
Se    7.24658000    7.09404000   11.13795000     -1.172327   -0.21604300   -0.34777300
Se    7.38143000   13.26671000    0.62351000     -1.638424    0.04772600    0.97257500
Se    7.39499000   13.20837000   10.80943000     -1.125938   -0.21859700   -0.14832200
Se    7.05798000   19.14011000    1.11661000      1.413721    0.56793500    0.17871600
Se    7.74683000   18.80099000   11.21807000     -0.860082    0.35139100   -0.07142700
Se   12.97609000    1.16799000    1.19739000     -0.343965    0.70210500    0.83885400
Se   12.97809000    1.26897000   10.71220000      0.241978    0.06331800   -0.11221600
Se   12.78026000    7.15636000    1.58543000      0.959552   -1.35040000   -1.05578700
Se   12.72943000    7.82185000   10.97868000     -0.448634    0.11020700    0.61783900
Se   12.99225000   12.75442000    1.16123000     -0.311673   -0.52516600   -0.26415600
Se   13.03087000   12.73833000   11.32742000      0.277321    0.82456700    0.30295000
Se   12.84935000   18.44039000    1.03542000     -0.151702    0.10870600    0.02278400
Se   12.97966000   19.15202000   11.06034000     -0.350303    0.47342600    0.08362500
Se   19.07950000    1.47552000    0.77108000      0.697228    0.23409700    0.71470300
Se   19.01388000    1.54565000   10.85876000      0.230134    0.16460200    0.19749800
Se   19.07861000    7.08460000    1.62294000     -0.865198    0.15924100   -0.30498100
Se   18.56730000    7.27510000   10.66999000      0.610939   -0.18538300   -0.26838800
Se   18.79563000   12.72238000    1.51003000      0.184471    0.12919200   -0.49538100
Se   19.20622000   13.50260000   10.66235000     -0.276634   -0.74492700    0.46161200
Se   19.17574000   18.84110000    1.49197000     -1.091864   -0.65099900   -0.58645200
Se   19.05224000   18.90198000   10.65591000      0.824545    1.20066700    1.17305700
Se    4.30905000    4.37107000    0.85115000      0.767714    0.58236800    0.04851700
Se    4.07610000    3.89529000   11.30883000      0.743775    0.80832400   -0.65887200
Se    3.98916000   10.72666000    1.48943000     -0.149386    0.00821900   -0.33035100
Se    4.25449000   10.16561000   10.67750000      0.353599    0.54251200   -0.34921400
Se    4.15517000   16.26753000    1.35410000      1.514243   -0.92458400    0.28626800
Se    4.60706000   16.01005000   10.83292000     -0.673594    0.60104300   -0.56264100
Se    4.14753000   22.52865000    1.34770000      0.469292   -0.04174700   -0.88365200
Se    4.73862000   21.84392000   11.28380000     -0.011177   -0.39122200    0.27059500
Se    9.86294000    4.30782000    1.19290000      0.605372   -0.59667500    0.73716900
Se   10.27357000    4.32614000   11.46874000     -1.041547   -0.47629900    0.33636400
Se    9.73692000   10.18879000    1.31501000     -0.074419   -0.35210800   -0.01602300
Se    9.62357000   10.79654000   11.09632000      0.340887    0.07402100   -0.28807400
Se   10.25320000   15.37728000    1.33879000     -0.644276    1.00001600   -0.94418200
Se   10.60836000   16.15393000   11.42368000     -1.389693    0.62838900   -0.64007600
Se   10.00067000   21.44924000    0.81519000     -0.000732    0.36111800    0.17078500
Se    9.92714000   22.11636000   11.25328000     -0.301796    0.60164800   -1.24914900
Se   16.02258000    4.01394000    1.04593000      0.493799    0.29837900    0.23887700
Se   16.08100000    4.27753000   11.07412000     -0.660516   -0.15148100    0.25291600
Se   15.88678000    9.97498000    1.13697000     -0.186093   -0.76225100    0.70883500
Se   16.03945000   10.79392000   11.27729000     -0.688143   -0.91022800    0.06826600
Se   16.01643000   15.75564000    1.19233000      0.885564    0.49219900   -0.05197600
Se   16.18640000   16.22035000   10.84235000     -0.420423   -0.34268400    0.29566000
Se   15.98141000   21.59452000    1.04195000     -0.065005   -0.19983600    0.36212300
Se   15.95397000   21.98257000   11.13432000      0.622710   -0.81379300    0.27081600
Se   21.68420000    4.36899000    1.26627000      0.196341   -0.38621800    0.06762300
Se   21.57537000    4.19297000   10.83544000      0.142329    0.34346600   -0.18097800
Se   21.76663000    9.77066000    0.82366000      0.300803    0.24331000    0.65170400
Se   21.89160000   10.04461000   10.84938000     -0.703402   -0.55958700    0.40348200
Se   21.71374000   15.88784000    1.35890000     -0.292025    0.12499800   -0.05105400
Se   21.90210000   16.14885000   10.85033000      1.234817   -0.22600200   -0.27959900
Se   21.74646000   21.65417000    1.38838000      0.480161    0.05871700   -0.16101600
Se   21.87896000   21.49991000   11.27963000      0.492360    0.15600600   -0.55331300
Se    1.46803000    4.19693000    8.38428000      0.339192    0.82602200   -0.31029200
Se    0.98282000    4.32101000   17.97343000      0.640090    0.11170500   -0.11335600
Se    1.25279000   10.01595000    8.29688000      0.181809    0.08716500    0.07264600
Se    1.29506000   10.11736000   18.02237000     -0.320139    0.82493500    0.19744800
Se    2.06970000   15.79856000    8.30732000      0.233658   -0.10174200   -0.31925100
Se    1.65002000   15.96479000   18.48614000     -0.734076   -1.48934700    0.53481800
Se    1.94388000   21.57739000    8.74959000      0.039788    0.41053400   -0.37729100
Se    1.32670000   21.66398000   18.37247000      0.410545    0.34523600   -0.59150800
Se    7.83794000    4.45657000    8.95600000     -1.607065   -0.44819700    0.49185800
Se    7.21216000    4.37011000   18.16935000     -0.134485    0.74702200    0.31987300
Se    7.23338000   10.40344000    8.23529000      0.425608   -0.29013600   -0.11170300
Se    6.77450000   10.40877000   18.09061000     -0.400592   -0.08871000    0.67006600
Se    7.82355000   16.09226000    8.46629000     -0.002019   -0.77360900    0.49540600
Se    7.26667000   15.98891000   18.54816000      0.101702   -0.39567900   -0.36379200
Se    7.37144000   21.43122000    8.51199000     -0.551972    0.71671000    0.61121100
Se    7.08447000   22.05857000   18.22071000     -0.411474   -0.12350200    0.37052500
Se   12.64166000    4.28266000    8.60873000     -0.156171    0.89331300    0.56989700
Se   13.02791000    4.13653000   18.61796000      0.077323    0.09206800   -0.20386800
Se   13.01390000   10.25883000    8.83427000      0.083312    0.02392700    0.12900700
Se   12.83729000   10.17734000   18.20283000      0.194429    0.03547000    0.12438500
Se   13.23454000   15.85672000    8.92687000     -0.024495    0.58641500   -0.75815200
Se   13.19425000   15.70594000   18.16881000      0.782834    0.37903900   -0.52274300
Se   13.20185000   21.77673000    8.72509000     -0.502639    0.33864500   -0.17898000
Se   13.42019000   21.63372000   18.14638000     -0.723873    0.44018400    0.30623000
Se   18.68700000    4.13123000    8.45210000      0.208559    0.96346700   -0.27843300
Se   19.06302000    4.43660000   18.48734000     -0.020331   -0.94403500   -0.34940300
Se   19.32806000   10.30280000    9.03770000     -0.911860   -0.43785500    0.27668700
Se   18.89813000   10.15056000   18.53762000      0.164892    0.40342300   -0.48720200
Se   19.03234000   15.82763000    8.73973000     -0.620001    0.87722100   -0.47260400
Se   19.39753000   15.45273000   18.56898000     -1.117604    0.73442700    0.50688300
Se   18.75394000   21.23739000    8.53826000     -0.024432    1.20360500    0.16955300
Se   19.47431000   21.59375000   18.64335000     -0.500102    0.05757400   -0.15289000
Se    4.75679000    1.40550000    8.47396000     -0.119415   -0.06285500    0.31785100
Se    3.88336000    1.69260000   17.99779000      0.975411    0.22820800    0.60234700
Se    4.68971000    7.10054000    8.50447000     -0.531397   -0.15754500   -0.01287800
Se    4.01640000    7.38051000   18.26213000     -0.771486   -0.10930400   -0.71933400
Se    3.89015000   12.98273000    8.75118000      0.672301    0.36272300    0.11385100
Se    4.10457000   13.37158000   17.94056000      0.001508   -0.28889500    0.42535200
Se    5.10567000   18.88934000    8.48990000     -0.987582    0.12557000   -0.09314200
Se    4.31752000   18.99719000   18.59587000     -0.175476    0.00993100   -0.59668800
Se    9.61875000    1.30186000    8.43684000      0.446792   -0.03038200   -0.36406500
Se   10.32080000    1.41609000   18.39909000      0.454711    0.58015600    0.39547000
Se    9.88214000    7.79595000    9.28060000      0.071525   -1.65125500   -0.83921600
Se   10.36539000    7.27318000   18.17889000     -0.030913   -0.22576000    0.67249600
Se   10.74281000   13.27472000    8.13005000     -0.855574    0.05729100    0.44079000
Se    9.99503000   13.09440000   18.11079000      0.382054    0.21698000    0.31015800
Se   10.54481000   19.09330000    8.41493000     -0.605664   -0.18510400   -0.15304900
Se   10.01767000   18.69064000   18.52830000      0.496242   -0.87999200   -0.29321500
Se   16.39469000    1.23177000    8.48553000     -0.407350    0.61164500   -0.37248700
Se   16.31122000    1.16307000   18.24940000      0.032460    0.03916300   -0.22396800
Se   15.43093000    7.28051000    8.64428000      0.831328   -1.03809500    0.22259200
Se   16.12905000    7.02836000   18.29407000     -0.309101    0.19659100    0.16897500
Se   16.40495000   13.27365000    8.38431000     -0.962283   -0.62606200   -0.16711100
Se   16.27371000   13.01311000   18.13244000     -0.667268    0.88169200   -0.07404100
Se   15.67949000   18.88127000    8.43412000      0.470690    0.01427600   -0.08690700
Se   16.46043000   18.74653000   18.27268000      0.214622   -0.51135800    0.34232600
Se   21.76240000    0.99436000    8.62214000     -0.032747   -1.03691300   -0.07384900
Se   21.89705000    1.49956000   18.33396000     -0.139610   -0.00634700   -0.29406900
Se   21.49970000    7.10199000    8.83307000      0.564114    0.08864200    0.05826500
Se   21.32704000    7.48592000   18.17266000      1.225810   -0.08802600    0.50547700
Se   22.13887000   13.06641000    8.58204000     -0.467660    0.08340000   -0.52736800
Se   21.72291000   13.19449000   18.06023000     -0.331367    0.30168300   -0.33667900
Se   21.97531000   18.48529000    8.35765000      0.207689    0.26024500   -0.36962800
Se   21.99947000   18.48790000   17.99727000      0.097679    0.19143500    0.57309300
Se    1.59538000    1.47457000    6.24130000     -1.001494   -0.02397200   -0.24065200
Se    1.21568000    1.50636000   15.71877000      0.461246   -0.63137200    0.42893800
Se    1.34314000    7.42901000    6.04331000      0.500869   -0.74062800    0.54897400
Se    1.00320000    7.33131000   15.63658000      1.778366   -0.30167800    0.25138100
Se    1.72521000   13.11970000    5.63089000     -0.403010   -0.95804100    0.90681200
Se    1.50486000   13.11049000   15.34532000     -0.529617   -0.17238000    0.48329300
Se    1.91945000   18.89433000    5.98388000     -0.474725   -0.30897800    0.83433400
Se    1.58560000   18.79563000   15.87131000     -0.326487   -0.63320500    0.80922400
Se    7.24651000    1.77151000    5.97341000     -0.549432   -0.84155800    0.49283200
Se    7.33159000    1.75182000   16.03062000      0.087882   -0.35155400    0.44742600
Se    6.88752000    7.53394000    6.38760000      0.119201    0.18882100   -0.45560500
Se    6.83685000    7.24553000   16.20519000      1.181912    0.36255900   -0.43265100
Se    7.40335000   13.39523000    6.38006000     -0.274285    0.41494200   -0.70664100
Se    6.80948000   13.41604000   15.64483000      1.280712   -0.23954400    0.59429400
Se    7.05494000   18.95470000    5.98606000      0.857745   -0.18948100    0.02920100
Se    7.25646000   18.84409000   16.13772000      0.288578    0.05669500   -0.46127700
Se   13.04346000    1.83683000    6.26232000      1.030795   -0.82172300    0.20280400
Se   13.30448000    1.77435000   15.96805000      0.032197   -0.98833900    0.16504200
Se   12.95904000    6.87701000    5.84255000     -0.834986    0.95325400   -0.44597100
Se   12.85027000    7.07494000   16.02135000     -0.039917    0.90359600   -0.45176800
Se   13.13210000   13.50779000    6.41347000      0.936538   -0.36001600   -0.38527500
Se   13.31296000   12.95498000   15.63656000      0.636115    0.43672600    0.39964100
Se   12.97257000   18.73124000    6.10609000     -0.462682    0.63924400   -0.74331400
Se   13.15582000   19.04035000   16.26829000      1.064982   -0.57161800   -0.86664900
Se   18.70695000    1.59413000    5.95499000      0.559525   -1.04755100    0.77463900
Se   19.18115000    1.25223000   16.08522000      0.124356   -0.50643300    0.26646300
Se   18.56149000    7.42515000    6.45680000     -0.975382    0.91139300   -0.67719600
Se   18.55941000    7.23957000   15.48802000      0.392087    0.22472400    0.35183700
Se   19.03303000   12.80251000    6.22999000      0.274174   -0.03127800    0.22870700
Se   18.49021000   13.21328000   15.80437000     -0.530142   -0.27496800    0.02141000
Se   18.93774000   18.86165000    6.33776000      0.093287   -0.59082000   -0.26843500
Se   18.80565000   18.96397000   15.80770000      0.349433   -0.21407400    0.40358600
Se    4.42076000    4.23594000    5.89227000     -0.436581    1.03604300    0.46676200
Se    4.27178000    4.49289000   15.75381000     -0.832137   -0.14424400   -0.26887700
Se    4.57623000   10.18779000    6.06510000     -1.230934   -0.48671900   -0.15303600
Se    4.23581000   10.19493000   15.82265000      0.556732    0.68386400    0.56062000
Se    4.73999000   16.35766000    5.75293000      0.054684   -1.36503900   -0.76657400
Se    4.60920000   16.01379000   16.19539000     -0.828512   -0.12003400   -0.62727300
Se    4.75497000   21.95573000    6.18448000     -1.107041   -0.39688700   -0.52878800
Se    4.44730000   21.82602000   15.79597000     -0.319817    0.24496700    0.45871700
Se   10.21763000    4.86716000    6.51072000     -1.093160   -0.16586100   -0.28410500
Se   10.17957000    5.05510000   15.36633000     -0.447077   -1.14949700    0.20242400
Se   10.00890000   10.19023000    6.33824000      1.059386   -1.86282500   -1.41108100
Se    9.58138000   10.47786000   15.85486000      0.653899   -0.85153500   -0.57180100
Se   10.34784000   16.20670000    6.22894000      0.573895   -0.72788700   -0.93808900
Se   10.33617000   15.85508000   15.97265000     -0.713384   -0.12143000   -0.22971500
Se    9.95364000   21.55074000    5.79566000     -0.430751    0.28942700   -0.15273200
Se   10.13538000   21.55847000   16.65650000     -0.489739    0.37378400   -0.84439100
Se   15.94929000    4.37037000    6.24982000     -0.081234   -0.12504900   -0.07775500
Se   15.87541000    4.42316000   16.06321000      0.324882    0.27325900   -0.25826800
Se   15.64277000   10.15256000    6.39788000      0.333641    0.42374000    0.11942700
Se   15.96586000   10.34654000   15.59180000     -0.676020   -1.00279600    0.25131800
Se   16.08140000   16.13014000    6.06897000      1.831034    0.52983200    0.13412900
Se   16.36764000   15.80172000   16.18505000     -0.127966    0.16836200   -0.39944300
Se   15.66801000   21.82899000    5.94238000     -0.042325   -0.07318700   -0.31125700
Se   16.10620000   21.62622000   15.40455000      0.333937    0.78334700    0.71077200
Se   21.40219000    4.80877000    5.83377000      0.695490    0.04840100    0.40672100
Se   21.54649000    4.55082000   15.68037000      0.998308    0.87332000    0.67206400
Se   21.80698000   10.11453000    5.95800000      0.087420   -0.72164200   -0.11894900
Se   21.36877000   10.47872000   15.71937000     -0.092642   -0.40020400   -0.25041800
Se   21.97537000   15.63606000    5.93783000     -0.036868    0.75137300    0.68772200
Se   21.61660000   15.80262000   15.62271000     -0.267167   -0.39542300    0.23357900
Se   21.60359000   21.63440000    6.01693000      0.267729    0.13770400   -0.16984000
Se   22.14071000   21.48550000   15.75290000     -0.211815    0.30594600    0.31316800
Se    4.67425000    1.82473000    3.53873000     -1.275392   -0.90945100    0.89400600
Se    4.10799000    1.27003000   13.64731000      0.126531   -0.36601400   -0.19824600
Se    4.44577000    7.20400000    3.58011000      0.306921    1.05043100   -0.41612500
Se    4.42760000    7.28246000   13.42597000     -0.030651    0.26348100   -0.03940900
Se    4.69614000   13.43538000    3.60807000     -0.022236   -1.30977100    0.23174400
Se    4.34068000   13.09883000   13.32226000      0.099365   -0.13480400   -0.06673800
Se    4.22100000   19.08876000    3.25357000      0.642308   -0.16275400   -0.46684200
Se    4.78231000   18.83418000   13.80246000      0.016294    0.37983900   -0.34080900
Se    9.93318000    1.75780000    3.99974000     -0.088986   -0.68755600    0.01806800
Se   10.38965000    0.93727000   13.73039000     -0.161857    2.12191500   -0.17698100
Se    9.81777000    7.48969000    3.71312000      0.018514    0.06901000    0.11501000
Se    9.98728000    7.63629000   13.65929000     -0.774409   -0.34556400    0.24060400
Se   10.00922000   12.89862000    3.81409000      0.627955    1.12383500   -0.05220700
Se   10.23013000   13.15165000   13.67051000     -0.272583    0.37655900    0.10808900
Se    9.96656000   18.65742000    3.41119000      0.378671   -0.21661700   -0.47412600
Se   10.24247000   19.04302000   13.94557000      1.295274   -0.91168600   -1.65303400
Se   16.38344000    1.37905000    3.57897000     -0.611813   -0.51748300    0.31655800
Se   15.93072000    1.49845000   13.16450000     -0.603534   -0.44514500    0.64716100
Se   15.81812000    7.25277000    3.84820000      0.096740    0.38916500   -0.20624000
Se   15.66506000    7.20175000   13.34896000      0.077515   -0.41866400   -0.37508300
Se   15.99163000   12.98615000    3.75012000     -0.092628    0.19124000    0.15897900
Se   16.52732000   13.33564000   13.31339000      0.092491    0.10670700   -0.35370000
Se   15.61386000   18.63930000    3.26446000     -0.032693    0.09164000    0.29692300
Se   15.98890000   18.58431000   12.88887000     -0.459965    0.73755800    0.79420300
Se   21.83195000    1.50706000    3.76209000      0.613176   -0.20444500   -0.31520300
Se   21.50235000    1.15286000   13.19871000     -0.094277    0.89037100    0.90403800
Se   21.74545000    7.30351000    3.86040000      0.103877   -0.12636500   -0.16382200
Se   21.87410000    7.46617000   13.48505000     -0.424104   -0.00677600   -0.04363200
Se   21.73574000   12.66709000    3.26724000      0.301043    1.61706200    0.71287200
Se   21.95660000   12.93237000   13.38976000     -0.587909    0.91900100    0.10657600
Se   22.07333000   18.59057000    3.98331000      1.004728   -0.83020200   -0.73838200
Se   21.90358000   18.67135000   13.84789000      0.283127    0.12134700   -0.96058900
Se    1.38324000    4.46522000    3.70904000      0.480219    0.57661400    0.33907800
Se    1.07668000    4.31408000   13.40335000     -0.140059   -0.20086700   -0.17632200
Se    1.76143000   10.13139000    3.56301000     -1.224212    0.42164900   -0.62026300
Se    1.59125000   10.06373000   13.26472000      0.287843    0.93104500   -0.11383400
Se    1.51475000   16.06771000    3.53698000     -0.536613    0.11236500   -0.38745400
Se    1.66173000   16.24382000   13.43091000     -0.369933   -0.66566500   -0.26340300
Se    1.52833000   21.88669000    3.84936000     -0.418201   -0.89986400   -0.29266800
Se    1.55197000   21.32934000   13.30100000      0.869606    1.19449700    0.32666500
Se    7.37127000    4.88838000    3.58811000     -0.218120   -0.53372200    0.02048000
Se    7.01925000    4.09346000   13.74562000      0.455537    0.65553400   -0.00197800
Se    7.15343000   10.62352000    3.65395000     -0.291580   -0.75514500   -0.19892300
Se    7.14834000   10.19643000   13.11338000     -0.407221    0.56764400    0.00811000
Se    7.73147000   16.29114000    3.57457000     -1.142748   -0.42918200   -0.70981200
Se    7.24577000   16.10789000   13.18980000      0.457580   -0.03580100    0.48255500
Se    6.93779000   21.82874000    3.40968000      1.341759    0.30413700    0.72116600
Se    7.70467000   22.14430000   13.62379000     -0.433094   -1.27461200    0.19658600
Se   13.34272000    4.23421000    3.75779000     -1.402540    0.08830400   -1.13723300
Se   13.17058000    4.30751000   13.17089000     -0.555180   -0.13158600    0.00089600
Se   13.05260000   10.31473000    3.50719000     -0.410044   -0.97103300    0.06659500
Se   12.71891000   10.27392000   13.73240000      0.421389   -0.22436800   -0.17533300
Se   12.99891000   15.88243000    3.92352000      0.070684   -0.00812600   -0.52008600
Se   13.40140000   15.92244000   13.42430000      0.948798    0.52276400    0.78688200
Se   12.57771000   21.48815000    3.63474000      0.430414    0.43399200    0.01288700
Se   12.96480000   21.90536000   13.54510000      0.081567   -1.23062300   -0.24636500
Se   18.85623000    4.36967000    3.53742000      0.686794   -0.30672300    0.43271300
Se   18.74251000    4.17579000   13.84968000      0.213757    1.38090400    0.20671400
Se   18.54920000   10.09451000    3.98049000      0.333553    0.67589200    0.09449200
Se   18.62530000   10.10116000   12.98107000     -0.558054   -0.38024000   -0.22574800
Se   19.09111000   15.85651000    3.77696000     -0.359126   -0.98592400   -0.09733800
Se   19.35894000   16.36666000   13.06217000      0.237446   -0.93757100    0.75863100
Se   18.97294000   21.38168000    3.61700000     -0.601169    0.11819300   -0.24176200
Se   19.17148000   21.89416000   12.85066000     -0.003327   -0.92453000    1.16915700
