384
23.23808000 23.23808000 19.51320000
Ge    5.68631000    5.44644000   10.08605000      0.277660    0.22944000   -0.61963800
Ge    5.76568000    6.10228000   19.18377000     -0.818959   -1.26486900    0.75196300
Ge    5.76184000   11.75080000    9.53873000      1.268777   -0.91483300    0.55988800
Ge    5.32578000   12.06320000   19.43369000      0.958350   -0.73184500    0.03177200
Ge    6.29625000   17.32202000    9.79744000      0.008294    0.12516100    0.24448500
Ge    5.78954000   17.49787000    0.13209000      1.151787    0.26346900   -0.39303100
Ge    6.08220000   23.15147000    9.78668000      0.998969    0.33565600   -0.33552000
Ge    5.69765000    0.43650000   19.29754000     -0.106870   -0.06751000    0.21040700
Ge   11.34940000    5.96085000   10.08034000      1.506351   -0.08139300   -0.19680200
Ge   11.54366000    5.56968000    0.12970000     -0.934190    1.04743000    0.32089300
Ge   11.45825000   11.69318000    9.81765000      0.519255   -0.25091800    0.20319800
Ge   11.17355000   11.43856000   19.50549000      0.460790    0.98953100   -0.35635500
Ge   11.84149000   17.48255000    9.85745000     -0.725897    0.70463400   -0.17730800
Ge   11.42886000   16.79819000   19.25449000      0.353566    1.30408000    0.68088900
Ge   11.34312000   23.22355000    9.41241000      0.836999   -0.60203400    1.55794200
Ge   11.64154000   22.95406000   19.42025000      0.211663   -0.71206100   -0.58609700
Ge   17.12215000    5.72419000    9.56824000      0.658708   -0.18405200    0.31648600
Ge   17.49230000    5.68321000    0.30599000     -1.066244    0.64157400   -1.03771200
Ge   17.64863000   11.94505000    9.86733000     -0.004409   -1.18928300   -0.35517400
Ge   17.31158000   11.59792000    0.14357000      0.765680   -1.10492000    1.06414800
Ge   17.51628000   17.72870000    9.53347000     -0.533687   -1.33074400   -0.15802500
Ge   17.81019000   17.16794000    0.11291000     -0.683481    0.13669700   -0.14053000
Ge   17.69718000   23.02263000    9.94249000     -0.396505   -1.00934800   -1.01573300
Ge   17.57081000   23.02962000    0.10268000     -0.506579   -1.67312200   -0.91722500
Ge    0.01517000    5.61814000    9.71657000     -0.037096   -0.27002200   -0.28778500
Ge   22.89581000    5.77474000   19.25659000      0.231452    0.43992900    0.63042100
Ge    0.09032000   11.57336000    9.78322000      0.436978   -0.39224300    1.04722200
Ge   23.02893000   11.60372000   19.27233000      0.169713   -0.24036400   -0.01077200
Ge    0.38252000   17.06542000    9.43095000     -1.578269    0.25732500    0.29790900
Ge    0.06466000   17.20973000    0.17964000     -1.249011    0.49340800   -0.90067100
Ge    0.31444000   22.88003000    9.94469000     -2.276764   -0.07783000   -0.17689300
Ge   23.19848000   23.23548000   19.49966000      0.519203   -1.25803100    1.45532800
Ge    2.97835000    5.87378000    7.13210000      0.176528   -0.91813100    0.58884300
Ge    2.67929000    5.82513000   16.85904000     -1.215106    0.29699100    0.73495400
Ge    2.83184000   11.46274000    7.33399000      0.013321   -0.31770800   -1.85710500
Ge    2.70992000   11.66869000   17.01343000      0.473906    0.60392000   -1.27310200
Ge    3.41120000   17.59168000    7.22685000      0.497201   -1.01289600    0.99323100
Ge    3.03216000   17.41575000   17.43287000     -0.130449    1.60036000   -0.96606800
Ge    3.08494000    0.05185000    7.40494000      0.291956   -0.80404200   -0.49466300
Ge    2.77701000   23.14577000   17.02586000     -0.437257   -0.43104700   -0.99372600
Ge    8.48154000    6.28036000    7.78460000      1.302642    1.03520300   -0.66837800
Ge    8.71520000    5.97431000   17.16753000     -0.016676   -0.48129200   -2.10616800
Ge    8.90497000   11.89868000    7.36954000     -0.586032    0.30155600   -0.47583500
Ge    8.23841000   11.92166000   17.07096000     -0.155987    0.18881100   -0.78070400
Ge    8.93378000   17.78215000    7.19260000      0.176134    1.32956600   -0.01828000
Ge    8.73371000   17.37918000   17.04178000      0.843160   -1.40410300    0.37623300
Ge    8.45408000   22.98102000    7.00537000      0.178816   -0.19230400   -0.16779900
Ge    8.74510000    0.19800000   17.19420000     -0.688252   -0.84706600   -0.01014700
Ge   14.15396000    5.63245000    7.42096000      0.497903   -0.30921100   -0.12802900
Ge   14.26817000    5.74425000   17.37781000      0.239883   -0.92609000   -0.44975000
Ge   14.39728000   11.81955000    7.63114000      0.134404    0.42379300   -0.35808700
Ge   14.56919000   11.54781000   17.21968000     -0.051517    0.53010400   -0.91184700
Ge   14.39609000   17.26855000    7.14384000      0.176868    0.08155700    1.38281500
Ge   14.80585000   17.33579000   16.96569000     -0.977492    0.56260600    0.96291600
Ge   14.45611000    0.18228000    7.48719000     -1.082696   -0.49289400   -0.72989400
Ge   14.76127000   23.15547000   16.80561000     -0.388467    0.35244900    0.46172100
Ge   20.02854000    5.91041000    7.41835000      0.392392   -1.15466500    0.49703000
Ge   20.06741000    5.86816000   16.93883000     -0.936774    0.94530400   -0.63709200
Ge   20.64544000   11.49606000    7.57695000      0.538319    1.44488900   -2.15089500
Ge   19.96041000   11.81872000   17.04629000      0.552692   -0.44827600    0.86430700
Ge   20.35267000   17.03759000    7.16078000      0.399859   -0.21646300    0.59553600
Ge   20.33494000   17.06143000   17.10905000     -0.560310    0.06328900   -2.03484200
Ge   19.99592000   22.87474000    7.23730000      0.988187    1.28793400    0.13056600
Ge   20.73073000   23.03388000   17.10359000      0.300852   -0.58490600    0.06198100
Ge    2.80326000    2.91076000    4.77402000      0.957189    0.53636100   -0.15818000
Ge    2.71711000    2.95899000   14.53451000     -0.714179    0.09706000    0.35363100
Ge    2.93055000    8.63956000    4.80737000      1.497717   -0.53395900    0.64131900
Ge    2.89133000    8.61039000   14.74473000     -0.769886    0.26227100   -1.38635500
Ge    3.12695000   14.85590000    4.68242000      0.467673   -0.69112300    1.34669700
Ge    3.16165000   14.67046000   14.60878000     -0.963947    0.58722200    0.71579400
Ge    3.20662000   20.45161000    4.74431000      0.091601    1.03540200    0.94484500
Ge    3.00361000   20.28502000   14.75460000     -0.056405   -1.39032900   -0.42161100
Ge    8.64775000    3.53338000    5.08412000      0.724306   -0.61989800   -0.10047000
Ge    8.83156000    2.85705000   14.70773000      3.102386    0.44681800   -0.84294500
Ge    8.24288000    8.92194000    4.98326000      1.524500    0.12944300   -0.03799700
Ge    8.07781000    8.86878000   14.76862000      0.974032   -0.40275900    0.63368400
Ge    8.83724000   14.82089000    4.95274000      0.009563   -1.55726300    0.51242900
Ge    8.58992000   14.67871000   14.62163000      1.052709    0.02011000   -0.15978400
Ge    8.40412000   20.15928000    4.40018000      0.551473    0.62547700    0.42528600
Ge    8.76038000   20.44149000   14.88187000     -0.216192    0.52861500    1.35453800
Ge   14.85065000    2.82813000    4.86812000     -0.780161   -0.64371600    0.04998200
Ge   14.68145000    3.06800000   14.51154000      0.361766    0.18624200    1.39523700
Ge   14.28868000    8.76611000    4.93554000      0.138383   -0.67629200    0.00587500
Ge   14.18127000    8.68502000   14.67175000      0.819216    0.01366100    0.53715400
Ge   14.87100000   14.63147000    4.96696000     -2.429707   -0.54174500    0.46187900
Ge   14.98695000   14.48918000   14.63533000     -0.581336    0.14120000    0.31218500
Ge   14.39073000   20.30153000    4.63969000     -0.683943   -0.94630900    0.10363100
Ge   14.50203000   20.21778000   14.49512000      0.104463   -0.84512900   -0.53181000
Ge   20.36180000    2.87924000    4.89999000     -0.789322    0.15498900   -0.32203400
Ge   20.43445000    2.75793000   14.74884000     -0.157465   -0.79788800   -0.60040200
Ge   20.04447000    8.59473000    5.07204000      0.871666    1.39840100   -0.08224200
Ge   20.09304000    8.87894000   14.38023000     -0.459616   -0.17809200    0.29398400
Ge   20.55823000   14.09781000    4.86112000     -0.881775    0.88840300   -0.06158600
Ge   20.20138000   14.25782000   14.37495000      0.356160    0.76734500   -0.07753100
Ge   20.37921000   19.82650000    4.92220000      0.758662    1.75609700   -0.87000400
Ge   20.37423000   20.43320000   14.55834000     -0.501256   -0.80378500   -0.03657600
Ge    5.99432000    3.39566000    2.37151000     -0.777583   -0.62825600   -0.39513800
Ge    5.72853000    2.69419000   12.44844000      1.427965   -1.14252500   -0.41914100
Ge    5.65281000    9.14313000    2.30940000     -0.728357   -0.67418800    1.07402400
Ge    5.63446000    8.79035000   11.93715000      0.135063   -0.77746200    0.46220300
Ge    6.12041000   14.79039000    2.23425000     -0.571949    0.21547400   -0.08276100
Ge    5.83535000   14.44572000   12.10603000      1.014858    0.67649400   -0.18379000
Ge    5.47313000   20.72682000    2.00472000     -0.522924   -0.36393100   -0.00339800
Ge    6.30793000   20.43338000   12.49026000     -0.953250   -0.34876700   -0.47101400
Ge   11.52623000    2.88486000    2.66464000      0.275239    0.00174900   -1.47304200
Ge   11.73015000    2.65798000   12.32310000      1.251348   -1.38717700    0.16271100
Ge   11.31041000    8.70922000    2.43017000      0.813532    0.72287900    0.69206600
Ge   10.95827000    9.24555000   12.32503000      1.177896   -1.11658200    0.03744100
Ge   11.83983000   14.23143000    2.62530000     -0.993239   -0.46380200   -0.12176200
Ge   11.81181000   14.49365000   12.43804000      0.108251   -0.77048100    0.38411700
Ge   11.44907000   20.02855000    2.12554000      0.094643   -0.28901000    0.38944300
Ge   11.34976000   20.48880000   12.16684000      0.561541    0.13844900    1.32826500
Ge   17.73554000    2.80776000    2.23873000      0.390252    0.24937900   -0.12986200
Ge   17.62542000    2.93982000   12.30437000     -1.141396   -1.15539200   -0.96573600
Ge   17.38904000    8.57733000    2.64471000      0.026786    0.92998800   -0.20164900
Ge   16.98798000    8.59808000   11.86779000      0.013633    1.35007000    0.94936100
Ge   17.50319000   14.36704000    2.54123000      0.625228    0.62996200    0.25150400
Ge   17.83692000   14.94427000   11.98879000      0.003689    0.81934600    0.24402300
Ge   17.28191000   20.08473000    2.37621000     -0.139853   -0.12964800    0.14027400
Ge   17.56692000   20.26065000   12.10858000     -0.316388    0.25950300   -0.04983100
Ge    0.10994000    2.96462000    2.50872000     -1.154156    0.29673300   -0.69064800
Ge   22.93923000    2.70178000   12.17084000      0.428010    0.71241600   -0.59626000
Ge    0.13036000    8.63957000    2.49322000     -0.542060    0.06394600   -0.85398100
Ge    0.15158000    8.59381000   12.09669000     -0.655655   -0.11083700   -0.64725200
Ge    0.04624000   14.43767000    2.40804000     -0.693832    0.03950900    0.18959800
Ge    0.11201000   14.63764000   12.22894000     -0.289211    0.35877900    0.41190100
Ge    0.03186000   20.17407000    2.58160000     -0.095485    1.27438300    0.05935400
Ge    0.17263000   19.81047000   12.24130000     -0.644883   -0.24027100   -0.12099700
Se    1.47935000    1.38164000    1.31570000     -0.097719    0.11713300    0.02914300
Se    1.37970000    1.34517000   11.14183000      0.598785    0.32163100   -0.05270300
Se    1.33405000    6.89324000    1.22063000     -0.424083    0.48033100    0.06380700
Se    1.56452000    7.03806000   10.86856000     -0.416269    0.14134600    0.15167300
Se    1.29529000   12.90673000    1.11644000      0.617464   -0.13127800   -0.26968800
Se    1.50676000   12.93891000   11.29940000      0.128135   -0.22532900   -0.59169400
Se    1.44028000   18.86158000    1.13953000      0.224197    0.19000400    0.32373900
Se    1.62725000   18.64014000   10.64496000      0.261547    0.62111500    0.63587000
Se    7.28570000    1.71064000    1.20022000     -0.021488   -0.08741500   -0.26844300
Se    7.55938000    1.69878000   10.89435000     -1.425316   -0.52266400    0.28085600
Se    6.90611000    7.80450000    0.86616000      1.427389   -0.29067400   -0.32870800
Se    7.13459000    7.10182000   11.09710000     -0.434657   -0.02550600    0.10406200
Se    7.37741000   13.26386000    0.63951000     -1.313073    0.22168200    0.88500700
Se    7.34511000   13.12621000   10.75534000     -0.581331    0.01753800    0.02032100
Se    7.09192000   19.20583000    1.08346000      0.685050    0.29135800    0.08387900
Se    7.64328000   18.87037000   11.13490000     -0.055242    0.34121500    0.01632400
Se   12.87642000    1.13783000    1.19802000      0.600372    1.32105800    1.30363900
Se   12.98714000    1.32009000   10.71167000     -0.423016   -0.02909400    0.08664500
Se   12.83133000    7.15262000    1.53277000      0.039144   -0.29797800   -0.63994100
Se   12.75912000    7.81150000   11.00322000     -1.117011   -0.18726800    0.48857200
Se   12.97260000   12.76837000    1.13303000     -0.188091   -0.44352700   -0.06328700
Se   12.95906000   12.74744000   11.35333000      0.678626    0.13541300   -0.40976100
Se   12.83451000   18.30549000    1.14713000      0.052361    0.35136200   -0.11023800
Se   12.98629000   19.21173000   11.02846000      0.463717    0.07963100    0.00960100
Se   19.03847000    1.38899000    0.72642000      0.987561    1.20894900    1.45104500
Se   18.93172000    1.49532000   10.82133000      1.314573    0.78759200    0.35092100
Se   18.92244000    7.09421000    1.62073000      0.188358    0.08381100   -0.29077900
Se   18.59096000    7.31176000   10.74881000     -0.041739   -0.30624500   -0.43932300
Se   18.92418000   12.65414000    1.59900000     -0.365706    0.56245500   -0.34419700
Se   19.15779000   13.47012000   10.69860000      1.075084    0.01231100    0.57511500
Se   19.07818000   18.85815000    1.44991000     -0.457961   -0.91339100   -0.75339300
Se   19.10266000   18.87968000   10.77174000      0.022657    0.73808100    0.45908000
Se    4.35444000    4.36269000    0.88919000      0.800399    0.60803300   -0.03577600
Se    4.15220000    3.90208000   11.32688000     -0.237752    1.27624500   -1.08217100
Se    4.00716000   10.58369000    1.48351000     -0.085428    0.76017200   -0.78762700
Se    4.29258000   10.19624000   10.65026000     -0.279520    0.18177400    0.04340800
Se    4.20970000   16.37140000    1.29069000      0.875253   -1.76690400    1.05427900
Se    4.58846000   16.04105000   10.87735000     -0.271224    0.08556700   -0.24920600
Se    4.10670000   22.60553000    1.26441000      0.400951   -0.93382900   -0.09976600
Se    4.77063000   21.88434000   11.23120000     -0.492012   -0.48515200    0.56344000
Se    9.86065000    4.28824000    1.18514000      1.098240   -0.34444100    0.65206600
Se   10.36153000    4.24261000   11.47770000     -2.079554    1.14594800   -0.65086600
Se    9.72262000   10.15121000    1.40752000      0.235263    0.37414800   -0.64631700
Se    9.63929000   10.78561000   11.06719000     -0.033975   -0.22977500   -0.16004700
Se   10.25983000   15.46714000    1.31268000     -0.551665   -0.04354800   -0.03489300
Se   10.57258000   16.09818000   11.37548000     -1.342352    0.81024300   -0.68163600
Se   10.01284000   21.51439000    0.86785000      0.137849   -0.16623600    0.30695400
Se    9.93437000   22.12505000   11.26050000      0.296866    0.00001700   -0.95234100
Se   16.03426000    3.98801000    1.15403000     -0.221211    0.73978100   -0.30148300
Se   16.06291000    4.25534000   11.10657000     -0.512045    0.25656900   -0.22707100
Se   15.94828000    9.96387000    1.24644000     -0.255261    0.02671700    0.05737300
Se   16.00244000   10.90254000   11.23499000      0.045279   -1.23114900   -0.09586800
Se   16.01356000   15.73975000    1.19948000      1.064402    0.31349400   -0.00559000
Se   16.16656000   16.20438000   10.91534000     -0.094691    0.21081900   -0.27022700
Se   15.91061000   21.55850000    1.10172000      0.556871    0.26306800    0.03474100
Se   16.05238000   21.99095000   11.16272000     -0.172271   -1.16960600    0.60778400
Se   21.63332000    4.39961000    1.25307000      0.503245   -0.62733400    0.13473100
Se   21.60313000    4.19075000   10.78995000      0.559609   -0.03944100    0.23145300
Se   21.84473000    9.82673000    0.84455000     -0.059912   -0.12757800    0.82486500
Se   21.82435000   10.01478000   10.83547000      0.569551   -0.32880900    0.28555100
Se   21.66152000   15.92507000    1.37305000      0.803163   -0.08011800   -0.03622200
Se   21.91345000   16.07084000   10.87083000      0.889118   -0.23535200   -0.01665100
Se   21.66830000   21.62704000    1.27010000      0.923442   -0.00341300    0.06325800
Se   21.90339000   21.45061000   11.31248000      0.910629    0.41705700   -0.94183800
Se    1.57080000    4.19436000    8.44012000     -0.069922    1.09007100   -0.15880800
Se    1.05082000    4.30709000   17.97433000      0.417204    0.37655300   -0.03630000
Se    1.17453000   10.05310000    8.28382000      0.356903   -0.09746800    0.12928700
Se    1.27335000   10.12799000   17.97409000     -0.499711    0.17597900    0.67589000
Se    1.99083000   15.81273000    8.32082000      0.493748    0.16890400   -0.54535500
Se    1.60466000   15.91613000   18.46948000     -0.189099   -1.19061600    0.19072600
Se    1.88601000   21.61724000    8.75787000      0.430008    0.00124600   -0.51231100
Se    1.37624000   21.63040000   18.35267000      0.023258    0.37114000   -0.34277400
Se    7.74811000    4.47054000    8.91904000     -1.419614   -1.24672700    0.86069200
Se    7.30258000    4.46904000   18.19728000     -0.777294   -0.26887200    0.72974900
Se    7.26957000   10.40672000    8.25235000     -0.199997    0.04451600    0.42004100
Se    6.70452000   10.47007000   18.02282000     -0.497049   -0.01859100    0.82505500
Se    7.90161000   16.15564000    8.43941000     -0.746696   -0.82873000    1.18482700
Se    7.25468000   16.02644000   18.47331000      0.176173   -0.08778600   -0.36460500
Se    7.41616000   21.40413000    8.57694000     -0.408820    1.21254300   -0.05886900
Se    7.05404000   21.96267000   18.22835000     -0.112515    0.94010800    0.16797000
Se   12.68777000    4.25623000    8.62964000     -0.515353    0.56471200    0.65618400
Se   13.02539000    4.04711000   18.71665000      0.599592    0.37857300   -0.76617800
Se   13.04999000   10.17424000    8.81060000      0.090034    0.27133900    0.09769900
Se   12.79682000   10.19482000   18.14794000      0.027086   -0.29598700    0.18820200
Se   13.25815000   15.93245000    8.86216000      0.187964   -0.35289500   -0.62568100
Se   13.23793000   15.74693000   18.15995000      0.488045   -0.01562000   -0.31217000
Se   13.14489000   21.72264000    8.63396000     -0.611454    0.64085700   -0.15249000
Se   13.33961000   21.61522000   18.13423000     -0.416859    0.57217000    0.14632900
Se   18.72887000    4.15755000    8.45298000     -0.456710    1.03422200    0.14482300
Se   19.03022000    4.47894000   18.48755000     -0.324824   -1.20158500   -0.00038100
Se   19.36108000   10.31520000    8.97345000     -1.734759   -0.85113800    1.06100200
Se   18.88679000   10.19607000   18.56736000      0.467093    0.17546000   -0.71094600
Se   18.98084000   15.88433000    8.77273000     -0.392244    0.47737400   -0.71101300
Se   19.23070000   15.51902000   18.43737000     -0.876927    0.05190800    0.63274700
Se   18.72777000   21.34885000    8.51512000     -0.034614    0.35574700    0.21374400
Se   19.41636000   21.60048000   18.62035000     -0.413646    0.33045400   -0.31260700
Se    4.68516000    1.41508000    8.46388000      0.379664    0.16414000    0.50643500
Se    3.90076000    1.64836000   18.03283000      1.122709    0.43693200    0.69670100
Se    4.74755000    7.08207000    8.43781000     -0.691618   -0.68329700    0.40046400
Se    4.01772000    7.32179000   18.20105000     -0.411563    0.18021300   -0.30092900
Se    3.95993000   12.89717000    8.72886000     -0.301159    1.95831600   -0.04198000
Se    4.12476000   13.45184000   17.88172000     -0.195604   -0.54342100    0.53902300
Se    5.05563000   18.84608000    8.46283000     -0.726078    0.44460700    0.10448000
Se    4.38479000   19.03749000   18.70454000     -1.143899    0.39814300   -1.53508400
Se    9.62187000    1.26579000    8.42743000      0.520520    0.47530500   -0.22806600
Se   10.27940000    1.39311000   18.47307000     -0.103705    0.73225300   -0.07471000
Se    9.94726000    7.68196000    9.25470000     -0.380038   -0.59010500   -0.85494500
Se   10.22452000    7.24681000   18.20437000      1.373807    0.68792300    1.41142800
Se   10.73419000   13.20798000    8.15962000     -0.416287    0.39311400    0.54749300
Se    9.96024000   13.14178000   18.10673000      0.693490   -0.08862800    0.76114500
Se   10.50809000   19.15541000    8.49383000     -0.142676   -0.88032200    0.05225100
Se   10.08435000   18.62868000   18.42493000      0.890017    0.09686100    0.54070200
Se   16.30919000    1.13023000    8.60053000     -0.265389    1.33250400   -0.65352400
Se   16.30778000    1.19085000   18.23091000     -0.537402    0.16511100   -0.80734100
Se   15.39457000    7.22157000    8.69288000      0.616219   -0.30677900    0.03013100
Se   16.03644000    7.07094000   18.19744000      0.536614    0.28553800    0.98370500
Se   16.33467000   13.28511000    8.51682000     -1.183280   -0.21204900   -0.89808700
Se   16.34447000   13.02047000   18.14734000     -1.160419    0.49850400   -0.30605900
Se   15.68277000   18.86006000    8.44952000      0.461888    0.43958800   -0.05669600
Se   16.45391000   18.67440000   18.15266000      0.127350   -0.29025100    0.47832500
Se   21.73735000    0.96774000    8.65589000     -0.005514   -0.66918700   -0.21249800
Se   21.96293000    1.49373000   18.33006000     -0.571682    0.37066800   -0.63298900
Se   21.51511000    7.13657000    8.87693000      0.272229    0.03877600   -0.31454900
Se   21.32865000    7.37496000   18.20400000      1.004502    0.25231000    0.22042600
Se   22.15189000   13.11285000    8.57715000     -0.734368    0.61658200   -0.66378200
Se   21.74659000   13.23979000   18.08987000     -0.246474   -0.50211400   -0.13608600
Se   21.88736000   18.42960000    8.33879000      0.539190    0.36885000   -0.05788900
Se   21.89280000   18.44279000   17.93764000      1.362750    1.07052100    1.45882200
Se    1.53789000    1.50633000    6.18591000     -0.283311   -0.63447000    0.30604000
Se    1.21948000    1.55406000   15.79797000      0.622445   -0.67045900    0.21518700
Se    1.33842000    7.31522000    6.01655000      0.591938   -0.25633400    0.24720000
Se    1.12487000    7.34436000   15.69210000      0.748675   -0.62545300    0.37612400
Se    1.70569000   13.11214000    5.69174000      0.290018   -0.20509600    0.47392100
Se    1.46968000   13.07064000   15.39011000      0.551262   -0.00105700    0.53428300
Se    1.94298000   18.78267000    5.99119000     -1.311055    1.04696700   -0.36202300
Se    1.48879000   18.80814000   15.97643000      0.930722   -0.16942800    0.33308500
Se    7.25251000    1.79878000    6.01102000     -0.403634   -0.54651100    0.29220600
Se    7.33071000    1.83933000   16.00686000     -0.686104   -1.54865000    1.46171300
Se    6.91070000    7.50751000    6.41206000     -0.381347    0.03879800   -0.20918500
Se    6.91319000    7.19506000   16.16827000      0.178171    0.66507000   -0.48474100
Se    7.35642000   13.47876000    6.42319000      0.304734   -0.09732500   -0.63124100
Se    6.87314000   13.47487000   15.71029000      0.632030   -0.36685200    0.41951800
Se    7.10623000   19.00418000    6.04947000      0.517450   -0.28899500   -0.07176200
Se    7.30640000   18.82958000   16.11722000     -1.314721    1.26230900   -1.28250100
Se   12.99911000    1.83985000    6.24704000      1.408141   -0.74708200    0.08120100
Se   13.28118000    1.72320000   15.92358000      0.158821   -0.90058900    0.24455900
Se   12.96152000    6.77876000    5.80069000     -0.541133    1.33566400   -0.47395900
Se   12.81054000    7.07529000   15.97293000      0.340142    0.43582600    0.04683900
Se   13.09424000   13.56710000    6.37390000      1.278259   -0.59826400   -0.23943000
Se   13.35776000   12.97060000   15.59053000      0.274226    0.30714700    0.50501200
Se   12.99783000   18.75631000    6.11530000     -0.392581    0.70494100   -0.82448800
Se   13.20326000   19.01497000   16.18769000      0.700526   -0.55899100   -0.50187200
Se   18.74171000    1.57360000    5.98529000      0.355989   -1.00043300    0.75884600
Se   19.19010000    1.27392000   16.10227000     -0.783151    0.02133700   -0.08138200
Se   18.55749000    7.40008000    6.41684000     -0.670613    0.12010900    0.02203700
Se   18.56083000    7.25028000   15.49486000      0.744217    0.15313100    0.31889100
Se   19.05179000   12.87218000    6.17693000      0.204309   -0.26756500    0.52858400
Se   18.49877000   13.15386000   15.76690000     -0.052592    0.20020000   -0.35418700
Se   18.93585000   18.76207000    6.26907000     -1.234247   -1.02555600    0.63899900
Se   18.85456000   18.94221000   15.88707000      0.492551    0.00698100    0.04496200
Se    4.43712000    4.29069000    5.89165000     -0.701794    0.62544100    0.34694000
Se    4.18049000    4.40694000   15.80995000      0.459395   -0.15521800   -0.60015400
Se    4.50565000   10.22537000    6.00331000     -1.114736   -0.43802800    0.18412500
Se    4.24053000   10.15213000   15.80143000      0.412044    0.75253900    0.59547700
Se    4.72557000   16.29145000    5.77434000      0.115182   -0.50900000   -0.11788500
Se    4.59556000   16.08546000   16.18533000     -0.287492   -0.29779100   -0.56538800
Se    4.78485000   21.97378000    6.10528000     -1.628609   -0.34293700   -0.27610500
Se    4.45891000   21.81355000   15.67885000     -0.344630    0.81884800    1.03830200
Se   10.14708000    4.92593000    6.48817000     -0.728934   -0.17474000   -0.30709600
Se   10.10294000    5.04941000   15.29342000     -0.721441   -1.17567000    0.63930800
Se   10.01648000   10.12283000    6.29417000     -0.161380   -0.49235200   -0.72043900
Se    9.64764000   10.45763000   15.84485000     -0.523795   -0.52421300   -0.26222800
Se   10.32260000   16.11666000    6.24988000      0.667307    0.13703200   -0.38034600
Se   10.32985000   15.92968000   15.88490000     -1.295609    0.01112800   -0.09132100
Se   10.02521000   21.56650000    5.80501000     -0.794759    0.24259100   -0.31696500
Se   10.10748000   21.51259000   16.63039000     -0.309565    0.23721200   -0.98581400
Se   15.91120000    4.33900000    6.30828000      0.607812    0.24066400    0.24990400
Se   15.89231000    4.48001000   16.08070000     -0.034501   -0.08817800   -0.45203000
Se   15.67905000   10.15381000    6.36861000      0.027959    0.08563400   -0.10285500
Se   15.95636000   10.36453000   15.67821000     -0.778882   -1.22037700   -0.00778200
Se   16.13068000   16.16866000    6.07310000      1.369855    0.32221100    0.09920900
Se   16.34906000   15.75444000   16.24112000     -0.062694   -0.28582000   -0.86505600
Se   15.57893000   21.85085000    5.91931000      1.088466    0.39959700    0.19089800
Se   16.08754000   21.69213000   15.37999000      0.524002    0.52778200    0.55518800
Se   21.39864000    4.77821000    5.80063000      0.977724    0.39175900    0.54555100
Se   21.56406000    4.59647000   15.67190000      1.278372   -0.26528200   -0.04327400
Se   21.81018000   10.11677000    5.93613000     -0.723080   -0.25786500    0.68013600
Se   21.36664000   10.47286000   15.70605000      0.284041   -0.36948800   -0.26145000
Se   21.96993000   15.62720000    6.03344000     -0.092365    0.27756700    0.09785400
Se   21.68653000   15.77573000   15.52202000     -0.195863   -0.06272900    0.86372900
Se   21.59142000   21.59195000    6.03161000      0.140001    0.04494700   -0.22331600
Se   22.13423000   21.44525000   15.71770000     -0.470115    1.15937000    0.96378400
Se    4.60042000    1.76943000    3.52334000     -0.509416    0.19682900    0.22502200
Se    4.11332000    1.32319000   13.56330000      0.165537   -0.37103700   -0.14550000
Se    4.44775000    7.21796000    3.47625000     -0.039003    1.29998500    0.11337600
Se    4.53351000    7.33309000   13.50870000     -0.273098   -0.16196200   -0.03298300
Se    4.65130000   13.48373000    3.59527000      0.496596   -1.11152900   -0.40705700
Se    4.38319000   13.10251000   13.34207000     -0.032096   -0.50001400   -0.01086800
Se    4.29216000   19.04971000    3.27145000      0.318397   -0.13874600   -0.26342600
Se    4.80485000   18.89568000   13.72274000     -0.107024    0.58710700   -0.27448900
Se    9.93262000    1.73575000    3.88622000     -0.494549    0.19273400    0.68076700
Se   10.38349000    1.04749000   13.65565000     -0.444477    1.65923500    0.15603100
Se    9.87566000    7.43052000    3.75084000     -0.626926   -0.06287900    0.53013600
Se    9.90339000    7.59177000   13.73804000     -0.053998   -0.14899700   -0.46072300
Se    9.96652000   13.01878000    3.84271000      0.624338    0.41032600   -0.17508800
Se   10.29688000   13.10716000   13.68678000     -0.533987    0.49592400    0.10716800
Se    9.98882000   18.62336000    3.46474000     -0.087504    0.29545500   -0.29063700
Se   10.21612000   19.01887000   13.85409000      0.853313   -0.48772600   -1.24489200
Se   16.36023000    1.42112000    3.48994000     -1.017341   -0.92389400    0.89135900
Se   15.85063000    1.56801000   13.20165000      0.568256   -0.89558900   -0.23989900
Se   15.94225000    7.20197000    3.80580000     -0.998916    0.08662600    0.50978500
Se   15.62265000    7.23276000   13.35674000      0.098620    0.15859800   -0.26679100
Se   15.97399000   13.01296000    3.82880000      0.568662   -0.75359100   -0.60086700
Se   16.60872000   13.38873000   13.28930000     -0.247188   -0.55100400   -0.02711300
Se   15.60304000   18.62950000    3.28462000      0.089018    0.56487800    0.41999600
Se   16.02335000   18.59931000   12.94866000     -0.468621    0.87816500    0.83558200
Se   21.86385000    1.50016000    3.75500000      0.381713   -0.27227100   -0.20056300
Se   21.49400000    1.17372000   13.15920000     -0.220494    0.30171500    1.02655900
Se   21.77137000    7.38926000    3.93582000      0.295019   -0.65205800   -0.60630100
Se   21.87036000    7.47559000   13.56919000     -0.229399   -0.59959500   -0.14083400
Se   21.77477000   12.77538000    3.37478000      0.693123   -0.00019400   -0.05621500
Se   21.96939000   12.94327000   13.37467000     -0.058473    0.43207200   -0.11005700
Se   22.13753000   18.53715000    4.00274000      0.179766   -0.00373300   -0.33021600
Se   21.96540000   18.72394000   13.90491000      0.213217   -0.34055400   -0.87145500
Se    1.31021000    4.55760000    3.76492000      0.576313   -0.56815000    0.14697600
Se    1.06715000    4.34982000   13.36285000      0.143181   -0.61523000    0.07495700
Se    1.67188000   10.14177000    3.64071000     -1.005521    0.77349900   -0.76035900
Se    1.53698000   10.03030000   13.18646000      1.086934    0.53656700    0.84584300
Se    1.57957000   16.03533000    3.46115000     -0.994967    0.44756300   -0.53631100
Se    1.70931000   16.24494000   13.48701000     -0.426370   -0.90070200   -0.44426400
Se    1.54047000   21.87641000    3.77174000     -0.366959   -0.82666600   -0.23619800
Se    1.49984000   21.40783000   13.31834000      0.600262    0.69800800   -0.02774500
Se    7.35418000    4.92322000    3.57658000      0.014400    0.19010500    0.19943500
Se    7.14408000    4.06909000   13.73810000     -0.725335    1.48029200   -0.75265200
Se    7.11941000   10.59756000    3.61737000     -0.110822   -0.58728400    0.06114900
Se    7.16152000   10.19982000   13.07488000     -0.203389    0.84095600    0.13871700
Se    7.59513000   16.19964000    3.61777000     -0.857458    0.83951600   -0.87787500
Se    7.28897000   16.09679000   13.15457000      0.145126   -0.49425400    0.20347200
Se    7.01751000   21.86812000    3.33574000      0.926724    0.30035000    0.62517400
Se    7.65995000   22.12786000   13.56234000     -0.181747   -0.58436300    0.32910500
Se   13.27166000    4.21930000    3.73976000     -0.574437    0.32371700   -0.68531500
Se   13.18836000    4.30888000   13.26474000     -0.631245    0.42828800   -0.06272500
Se   13.00855000   10.28940000    3.57624000     -0.401829   -0.89763900   -0.14553100
Se   12.71879000   10.26550000   13.71371000     -0.039857    0.49412500   -0.33545600
Se   12.96554000   15.81818000    3.92528000      0.633654    0.36452900   -0.15299800
Se   13.37483000   15.90622000   13.47945000      0.678812    0.36275800    0.43085500
Se   12.62375000   21.54294000    3.66102000      0.064424   -0.08716200   -0.49363400
Se   13.07519000   21.83401000   13.51350000     -0.614171   -0.45274400   -0.64403900
Se   18.95105000    4.35532000    3.51851000      0.364881   -0.36696900    0.27900600
Se   18.73928000    4.16821000   13.82902000      0.526874    0.99021400    0.34920200
Se   18.55205000   10.13536000    4.05606000      0.090109   -0.08394900   -0.37949400
Se   18.58501000   10.16326000   13.03950000     -0.175520   -0.56172500    0.02260400
Se   19.14825000   15.86635000    3.78305000     -0.477933   -1.19337800   -0.23731900
Se   19.46771000   16.29844000   13.13670000     -0.430959   -1.12612800    0.03886100
Se   18.94044000   21.30499000    3.56202000      0.243381    0.29998600    0.55822700
Se   19.26721000   21.86858000   12.85182000     -0.330533   -0.80797400    1.04082400
