384
23.23808000 23.23808000 19.51320000
Ge    5.71633000    5.40407000   10.12820000     -0.497830    0.50085700   -1.36105700
Ge    5.74082000    6.01967000   19.23510000     -0.405636    0.23645100    0.57330900
Ge    5.73879000   11.75949000    9.58170000      1.042309   -1.76743200   -0.34961900
Ge    5.34878000   12.13054000   19.43537000      0.109540   -1.12708900    0.02182500
Ge    6.27407000   17.33692000    9.85216000     -0.268889   -0.34015500   -0.60871900
Ge    5.83215000   17.52848000    0.06219000      1.736105    0.62255300    0.04218600
Ge    6.11154000   23.13243000    9.67619000      0.491316    0.70394400    0.45611400
Ge    5.65789000    0.36302000   19.39427000      1.458652    0.81428800   -0.99092900
Ge   11.39731000    5.94984000    9.94149000      1.828607   -1.27146400    1.48508900
Ge   11.56637000    5.59764000    0.15185000     -0.794055    0.47416900    0.01737900
Ge   11.47197000   11.54112000    9.79030000      0.637824    0.30432300    0.08697500
Ge   11.25280000   11.48186000    0.00466000     -0.715082    0.47218700   -0.32137000
Ge   11.89372000   17.46576000    9.94779000     -1.095259    0.66929300   -0.51899500
Ge   11.46638000   16.84828000   19.34647000      0.673533    0.57237400   -0.26864000
Ge   11.35512000   23.15151000    9.47781000      0.453661    0.26240400    1.09919800
Ge   11.64395000   22.94728000   19.38104000     -0.056024    0.00147300   -0.00295100
Ge   17.08569000    5.79777000    9.60497000      1.403493   -0.82911200    0.96550300
Ge   17.37382000    5.72554000    0.28886000     -0.655740    0.35796800   -1.38756400
Ge   17.73465000   11.96319000    9.82495000     -1.204276   -1.55278500   -0.33247200
Ge   17.43016000   11.61824000    0.25652000     -0.363366   -0.50869800    0.09238300
Ge   17.50532000   17.66624000    9.49292000     -0.255183    0.12267000    1.14959300
Ge   17.74158000   17.17508000    0.04377000     -0.793276    0.24905300    0.14548700
Ge   17.69742000   22.94197000    9.93024000     -0.605893    0.71611400   -0.65880100
Ge   17.47083000   23.00421000   19.50401000      0.428186   -1.05118000    0.09570700
Ge    0.00547000    5.67686000    9.70389000      0.513865   -0.45364000   -0.07384100
Ge   22.85899000    5.77070000   19.24519000      0.871444   -0.38217600    0.77990400
Ge    0.09525000   11.62901000    9.78908000     -1.193923   -1.22460400    0.08109900
Ge   23.10616000   11.58660000   19.32646000     -0.398308    0.48309100   -0.47504300
Ge    0.20282000   17.00336000    9.52726000      1.212134    1.33545600   -1.02953800
Ge    0.05740000   17.22416000    0.12649000     -1.121419    0.14646200   -0.62792700
Ge    0.26034000   22.96982000    9.90874000     -1.680106   -1.00003100   -0.04542000
Ge   23.23378000   23.17906000    0.03515000      0.084379   -0.44418000    0.51947700
Ge    2.95147000    5.78305000    7.16630000      0.535993    0.13167300    0.64442100
Ge    2.67759000    5.81956000   16.89028000     -0.646717   -0.70675300    0.72616500
Ge    2.76512000   11.47318000    7.29179000      0.049388    0.09785400   -1.06008800
Ge    2.77558000   11.62441000   17.03924000      0.274995    0.79905900   -1.30564600
Ge    3.38372000   17.63066000    7.24917000      0.348681   -1.87517100    0.77729300
Ge    3.06079000   17.48549000   17.44311000     -1.092409    0.58917200   -0.29066900
Ge    3.10224000    0.01610000    7.44872000     -0.421803   -0.15861300   -1.37118500
Ge    2.75214000   23.10783000   17.03565000      0.474696    0.49459400   -1.06287600
Ge    8.55468000    6.33740000    7.84736000     -0.971451   -0.86561100   -1.16217300
Ge    8.67826000    6.02508000   17.12647000      1.184969   -0.73444300   -1.46732500
Ge    8.85780000   11.94117000    7.42809000     -0.109849   -0.58025700   -1.34742800
Ge    8.22287000   11.96274000   17.02934000      0.886134   -0.75016000   -0.18111100
Ge    8.97718000   17.90484000    7.20920000      0.282401   -0.38159400    0.16039200
Ge    8.72752000   17.47256000   16.98897000      0.805725   -2.10527600    0.38190200
Ge    8.53149000   23.01075000    6.97966000     -0.436517   -0.10634700    0.01045400
Ge    8.74235000    0.12864000   17.13190000     -0.994668    0.23471300    0.79919800
Ge   14.14169000    5.60511000    7.44803000      0.143248    0.08140800   -0.78971400
Ge   14.29414000    5.72201000   17.44092000     -0.885781   -0.92942100   -1.02377900
Ge   14.36793000   11.81881000    7.53139000      0.304858   -0.00797100    0.17127000
Ge   14.49488000   11.56370000   17.18222000      0.631167    0.79016100   -0.25231700
Ge   14.42616000   17.30842000    7.20534000      0.584985    0.47096400   -0.37860100
Ge   14.70233000   17.24349000   16.97799000      0.588510    0.99533400    0.29478200
Ge   14.37725000    0.17195000    7.43841000     -0.481141   -0.51438600   -0.11507400
Ge   14.72196000   23.13626000   16.79211000     -0.338601    0.48137500    0.65002700
Ge   20.08655000    5.79403000    7.44853000      0.087217    0.96099200   -0.31277700
Ge   20.06811000    5.80002000   16.83158000     -1.085211    1.22654800    0.69664700
Ge   20.64609000   11.63177000    7.56202000      0.055583   -0.13632000   -1.58796000
Ge   20.00515000   11.80512000   17.04052000      0.313269    0.17729200    0.76037400
Ge   20.35427000   16.97304000    7.12498000     -0.145082    0.20277900    0.89315800
Ge   20.37475000   17.03686000   16.97821000     -0.915903   -0.11630500   -1.18376500
Ge   20.06033000   22.94625000    7.23132000      0.736144    0.65006700    0.18261700
Ge   20.62648000   23.10406000   17.06581000      1.624475   -1.38861400    0.74690100
Ge    2.86431000    2.92977000    4.74900000     -0.282280    0.61627900    0.41275800
Ge    2.70929000    2.96488000   14.56301000     -0.656019   -0.54588500   -0.32924000
Ge    2.98300000    8.65774000    4.84068000     -0.299298   -0.41694400   -0.01508200
Ge    2.83351000    8.52773000   14.72446000      1.037689    2.35926400   -1.76978900
Ge    3.20651000   14.93858000    4.76156000     -1.278568   -2.07844200   -0.45138500
Ge    3.18472000   14.67736000   14.67840000     -0.952954   -0.31543600    0.40451200
Ge    3.19253000   20.50045000    4.72644000      0.196863   -0.27811500    0.78311300
Ge    2.96714000   20.28398000   14.68152000     -0.000556   -0.77549300    0.01739900
Ge    8.64238000    3.59704000    5.03893000      0.489550   -1.68437900    0.00618400
Ge    8.88334000    2.79209000   14.61972000      1.102589    0.67129500    0.48866600
Ge    8.21622000    8.90785000    4.98166000      1.413260   -0.01984300   -0.02142900
Ge    8.09978000    8.82956000   14.74854000      0.754224    0.68774400    0.43772600
Ge    8.81479000   14.80850000    5.00993000     -0.794806   -0.27485100    0.16886700
Ge    8.63172000   14.63746000   14.56547000      1.189431    0.26674800    0.01733100
Ge    8.39603000   20.23494000    4.42891000      1.192499    0.19238400    0.24494800
Ge    8.70674000   20.49756000   14.87573000      0.618178   -0.81704000    0.18942000
Ge   14.87128000    2.84990000    4.92153000     -1.229084   -0.63348100   -0.51913700
Ge   14.72448000    3.05171000   14.59653000     -0.279818    0.66042300    1.27845400
Ge   14.30483000    8.71420000    4.85516000      0.576410   -0.78935400    0.68736400
Ge   14.12581000    8.76654000   14.69083000      1.448734   -1.00049000    0.72322100
Ge   14.83665000   14.58674000    5.00422000     -0.642414    0.97837600    0.64404700
Ge   14.97602000   14.46925000   14.59062000      0.327371    0.40830400    0.44116500
Ge   14.41714000   20.35784000    4.65816000     -1.067999   -1.52023000   -0.27167600
Ge   14.45842000   20.25216000   14.47877000      2.104052   -1.52202800    0.20011500
Ge   20.34043000    2.87517000    4.89485000      0.105098   -0.40334200   -0.20759100
Ge   20.45375000    2.67313000   14.70746000     -0.376437    1.05442700   -0.15772900
Ge   20.05265000    8.62746000    5.09063000      0.414993    1.04407800    0.22781100
Ge   20.13594000    8.86203000   14.37945000     -1.170435    0.18621000    0.32414300
Ge   20.55926000   14.10093000    4.79002000     -1.153269    2.14595900    1.48504900
Ge   20.35023000   14.26768000   14.34118000     -1.327434   -0.20713900    0.65934000
Ge   20.35864000   19.82206000    5.00454000      0.979678    0.63173400   -1.57356900
Ge   20.37743000   20.43274000   14.52695000     -0.070181   -1.11084100    0.64372000
Ge    6.05537000    3.42878000    2.39713000     -1.139190   -1.54975900   -0.23426300
Ge    5.83682000    2.71117000   12.36998000      0.302551   -0.62058400    0.32220600
Ge    5.65285000    9.04790000    2.38035000     -0.092028    0.02744500   -0.57452400
Ge    5.61965000    8.79447000   12.01453000     -0.147859   -0.00069600   -0.28055600
Ge    6.18538000   14.84820000    2.20588000     -2.117765   -1.03255200   -0.18544600
Ge    5.92719000   14.38292000   12.04853000     -0.571577    1.59856000    0.39409000
Ge    5.39824000   20.71704000    2.03638000      0.933292    0.10660300   -0.10222300
Ge    6.30646000   20.48619000   12.37105000     -1.472818   -0.46404100   -0.05382200
Ge   11.59298000    2.97817000    2.65298000     -1.457852   -1.47597600   -1.61767800
Ge   11.77690000    2.70515000   12.40458000      1.280329   -0.66036500   -0.83819500
Ge   11.26719000    8.71612000    2.56092000      1.379318    0.07668900   -0.36135000
Ge   10.97507000    9.19205000   12.37916000      0.568264   -1.00324700   -0.16400000
Ge   11.79255000   14.18421000    2.67358000     -0.805230    0.25730900   -0.82964000
Ge   11.81196000   14.43527000   12.39359000     -0.526374    1.07535700    0.74663000
Ge   11.46345000   19.96093000    2.16470000     -0.088039    0.55075300    0.33366300
Ge   11.44458000   20.42134000   12.19758000     -1.018985    1.08112100    1.01875700
Ge   17.72570000    2.82492000    2.25671000      1.123919   -0.34344100   -0.10195400
Ge   17.60237000    2.89443000   12.18547000     -0.685596   -0.14295300    0.83003900
Ge   17.34112000    8.62550000    2.67392000      0.906337    0.97605100    0.35910400
Ge   17.00738000    8.76854000   11.98368000     -0.365632    0.00224400    0.14177200
Ge   17.55853000   14.36083000    2.55828000      0.437558    0.25557400    0.23286100
Ge   17.81349000   14.97467000   12.00284000      0.670920    0.81027400    0.16183500
Ge   17.29189000   20.08466000    2.39847000     -1.024455   -0.46805000   -0.21142200
Ge   17.57824000   20.26303000   12.14943000      0.092957   -0.25923000    0.18744800
Ge    0.06489000    2.96831000    2.47932000     -0.478513    0.86640200   -0.22871600
Ge   23.01570000    2.69372000   12.18052000     -0.632980    1.15451300   -0.49398800
Ge    0.18369000    8.63798000    2.45775000     -0.784088    0.17559400   -0.28694700
Ge    0.09876000    8.50037000   12.11954000     -0.307047    0.75825600   -0.65348900
Ge    0.03811000   14.38122000    2.41196000     -0.170234    1.43005300   -0.37343600
Ge    0.21229000   14.61148000   12.23724000     -0.239233    0.25906700    0.50269100
Ge    0.01328000   20.21665000    2.56880000     -0.623833    0.34856300    0.03108600
Ge    0.16871000   19.72861000   12.26129000      0.583850    1.04660200   -0.34970500
Se    1.49642000    1.38617000    1.32662000     -0.249562    0.13899200    0.02853300
Se    1.37081000    1.37300000   11.13127000      1.161735    0.07076400   -0.21924400
Se    1.27301000    6.88465000    1.22521000     -0.066553    0.25776300   -0.15112600
Se    1.60663000    7.08893000   10.88564000     -0.659663   -0.18391900    0.03408400
Se    1.33873000   12.93234000    1.11498000      0.806048   -0.12486300   -0.15641200
Se    1.45545000   12.86693000   11.15983000      1.377113    0.52699600    0.56195200
Se    1.40107000   18.90590000    1.13130000      0.305911    0.03505600    0.06613300
Se    1.68984000   18.56565000   10.71052000     -0.702526    0.08370600    0.27196700
Se    7.31420000    1.71993000    1.25113000     -0.140512   -0.34519100   -0.35221900
Se    7.47616000    1.79923000   10.86499000     -0.551109   -0.99968700   -0.31663200
Se    7.01465000    7.72806000    0.89416000      0.398447   -0.22024600   -0.16674500
Se    7.00216000    7.10981000   11.05988000      0.711552    0.40175600    0.42738700
Se    7.31152000   13.27119000    0.69805000     -0.318659    0.34355800    0.59731000
Se    7.27214000   13.04579000   10.70231000      1.074329    0.47500100    0.20830500
Se    7.15931000   19.28607000    1.05447000     -0.113222   -0.01647100    0.03419400
Se    7.53914000   18.95582000   11.05183000      0.969505    0.10826200    0.03895700
Se   12.80160000    1.16797000    1.25787000      0.857035    0.97424700    0.91832100
Se   12.97881000    1.36964000   10.71478000     -0.391198   -0.19312100    0.19791600
Se   12.88642000    7.13231000    1.45135000     -0.571965    0.50274500    0.07659200
Se   12.73805000    7.79302000   11.05054000     -1.004977   -0.24692700    0.22588500
Se   12.94524000   12.76214000    1.10279000      0.249443    0.10897500    0.45835200
Se   12.92077000   12.76118000   11.35910000      1.209477   -0.74267300   -1.06099300
Se   12.82436000   18.18993000    1.25487000      0.702856    0.90843300    0.04843500
Se   13.01473000   19.27296000   10.99611000      1.138146   -0.46313700   -0.36254700
Se   19.03888000    1.35356000    0.74862000     -0.059122    0.58173900    1.18729100
Se   18.90806000    1.47910000   10.79755000      1.343641    0.37931000   -0.01924500
Se   18.77143000    7.10664000    1.60355000      0.823515   -0.09709400   -0.28384600
Se   18.61140000    7.33536000   10.80743000     -0.823098    0.03698500   -0.20814200
Se   19.03479000   12.61144000    1.67114000     -0.470594    0.92527100   -0.02938100
Se   19.15670000   13.43792000   10.76423000      1.326817    0.59990900    0.68413600
Se   18.95906000   18.83066000    1.37210000      0.254778   -0.95773200   -0.69689200
Se   19.15371000   18.89346000   10.90885000     -1.005009    0.06008300   -0.46241200
Se    4.43565000    4.38416000    0.92705000      0.053136    0.29404000    0.16378700
Se    4.21965000    3.96717000   11.29567000     -0.495449    0.87351000   -0.61258100
Se    4.02149000   10.47474000    1.44217000      0.160260    0.86002400   -0.81797400
Se    4.31848000   10.23395000   10.62588000     -0.649198   -0.55949600    0.57579100
Se    4.30793000   16.39189000    1.27527000      0.553036   -1.79993500    1.00536500
Se    4.55618000   16.07736000   10.90980000      0.196345   -0.41116500    0.11436800
Se    4.07888000   22.63586000    1.17763000     -0.743922   -1.79810800    1.01245400
Se    4.78141000   21.90282000   11.20367000     -0.505940    0.03241300    0.08155000
Se    9.90921000    4.25212000    1.20999000      1.094846   -0.11706800    0.62594200
Se   10.35415000    4.20841000   11.45824000     -1.502611    1.41605600   -1.07504600
Se    9.71922000   10.12937000    1.47270000      0.600456    0.74600000   -0.87690800
Se    9.65524000   10.76080000   11.03161000     -0.083847   -0.79737500    0.29489100
Se   10.24087000   15.55660000    1.28258000     -0.500092   -0.81215600    0.60216400
Se   10.47654000   16.07750000   11.29700000     -0.359497    0.19850600   -0.23600700
Se   10.03224000   21.57086000    0.93535000      0.294089   -0.66419600    0.29484400
Se    9.95497000   22.13404000   11.22182000      0.760308   -0.71772700   -0.31577500
Se   16.03510000    3.99688000    1.24819000     -0.784070    0.93703600   -0.63683100
Se   16.01840000    4.24451000   11.12896000     -0.439691    0.58029600   -0.60293800
Se   15.99461000    9.95421000    1.35609000     -0.724007    0.84417700   -0.79563700
Se   15.96657000   10.95308000   11.18741000      0.507244   -1.21463800   -0.22835300
Se   16.06074000   15.74022000    1.20642000      0.895640    0.14630100    0.12530000
Se   16.14031000   16.19740000   10.97557000     -0.078823    0.47998500   -0.64404400
Se   15.86399000   21.53432000    1.16360000      0.632465    0.53741000   -0.23901900
Se   16.14256000   21.94502000   11.22121000     -0.930560   -0.95296500    0.67364400
Se   21.60548000    4.40004000    1.24569000      0.412042   -0.65727500    0.04197800
Se   21.65659000    4.18812000   10.75427000      0.585758   -0.23589900    0.40345000
Se   21.92082000    9.87758000    0.90408000     -0.452733   -0.31550700    0.72283000
Se   21.77989000    9.96922000   10.83619000      0.914170   -0.02412500    0.13421900
Se   21.64567000   15.95768000    1.38685000      1.087324   -0.23862800   -0.07497600
Se   21.96224000   15.97835000   10.89418000     -0.569951   -0.78462600    0.86870900
Se   21.63306000   21.59876000    1.15469000      0.920441   -0.06182300    0.34588900
Se   21.97067000   21.42072000   11.30070000      0.667243    0.51676000   -1.04006900
Se    1.66968000    4.24238000    8.48897000     -0.640388    0.53679900    0.12853000
Se    1.13852000    4.31047000   17.97477000     -0.121640    0.39310700    0.39445700
Se    1.11301000   10.08596000    8.27688000      0.373720   -0.11281100    0.16220400
Se    1.22978000   10.15022000   17.95544000     -0.167344   -0.05443700    0.60835900
Se    1.93242000   15.83613000    8.31055000      0.036693    0.46270800   -0.19572000
Se    1.54970000   15.81225000   18.46359000      0.520503    0.20868300   -0.07846200
Se    1.84689000   21.65740000    8.74317000      0.228622   -0.21353100   -0.18568600
Se    1.42768000   21.61430000   18.31720000     -0.353494    0.06246400    0.07172500
Se    7.59169000    4.43238000    8.92013000     -0.266249   -0.28391100    0.10553300
Se    7.35856000    4.55533000   18.25850000     -0.827740   -1.15312500    0.60831200
Se    7.29781000   10.41082000    8.28763000     -0.442185    0.01626800    0.48107600
Se    6.61396000   10.53118000   17.99378000      0.113946    0.19375600    0.63331700
Se    7.94697000   16.18268000    8.46547000     -0.733734    0.06814900    0.93563900
Se    7.25238000   16.05971000   18.37944000      0.270358    0.07082700   -0.41537400
Se    7.44114000   21.43327000    8.63889000     -0.150006    0.97717700   -0.63139100
Se    7.02020000   21.91027000   18.24588000      0.116755    1.14563800    0.18878800
Se   12.71013000    4.25662000    8.68170000     -0.567921    0.10559900    0.51628600
Se   13.04912000    3.97662000   18.78305000      0.441588    0.91477400   -0.66213500
Se   13.09035000   10.10245000    8.78939000      0.163134    0.41966200   -0.16470700
Se   12.75834000   10.19920000   18.10067000      0.047075   -0.33607900    0.24432300
Se   13.28672000   15.99330000    8.77039000     -0.338455   -0.91138900    0.18610400
Se   13.30336000   15.78654000   18.13809000     -0.622734   -0.71462900    0.49921600
Se   13.06047000   21.69706000    8.53402000     -0.392873    0.49320400   -0.18119700
Se   13.24035000   21.62259000   18.12721000      0.163546    0.26592100   -0.16027500
Se   18.74912000    4.23058000    8.46104000     -1.141292    0.02998600    0.74795000
Se   18.98315000    4.46747000   18.48540000     -0.362241   -0.53447300   -0.11116200
Se   19.31675000   10.29258000    8.95208000     -0.897385    0.08235400    0.14627500
Se   18.89813000   10.24820000   18.56245000      0.636624   -0.45132500   -0.71628400
Se   18.91258000   15.95978000    8.77098000      0.257025   -0.81206400   -0.85813500
Se   19.02629000   15.59074000   18.33479000      0.141459   -0.15772600    0.04980600
Se   18.70310000   21.47379000    8.49990000      0.613597   -0.90827000   -0.46525300
Se   19.33827000   21.62244000   18.58227000     -0.338303    0.23952900   -0.41602400
Se    4.63093000    1.43210000    8.47948000      0.516055    0.12778800    0.53427900
Se    3.96953000    1.62255000   18.10052000      0.638971   -0.05584400    0.30659700
Se    4.77133000    7.03155000    8.38933000     -0.856182   -0.84800600    0.55379400
Se    4.00131000    7.27156000   18.12619000      0.547029    0.47296200    0.43603000
Se    4.01740000   12.90018000    8.70250000     -0.931564    1.81329300   -0.72130100
Se    4.13537000   13.50482000   17.84835000     -0.235175   -0.84891000    0.70799000
Se    4.97390000   18.82332000    8.44161000      0.012418    0.73850300    0.52551000
Se    4.40075000   19.09583000   18.74320000     -1.122537    0.45357800   -1.57233100
Se    9.65155000    1.25043000    8.40845000      0.958128    0.47912100    0.13778000
Se   10.23517000    1.40203000   18.54213000     -0.477325    0.02405500   -0.65430700
Se    9.99716000    7.54550000    9.18773000     -0.364051    1.58566800   -0.42284600
Se   10.14599000    7.24947000   18.29555000      1.491801    0.61690600    1.23392600
Se   10.70324000   13.16022000    8.21464000     -0.102822    0.43229900    0.55329700
Se    9.95700000   13.18441000   18.13585000      0.494958   -0.50758800    0.54138900
Se   10.46444000   19.17883000    8.57585000      0.318840   -0.67175400    0.24993700
Se   10.19206000   18.57052000   18.34530000      0.771857    0.95022100    0.74497800
Se   16.20769000    1.08812000    8.68675000     -0.477327    1.10821800   -0.60525300
Se   16.27889000    1.22532000   18.17565000     -0.828203    0.17711900   -0.86217500
Se   15.38655000    7.14788000    8.74354000      0.020766    0.62827500   -0.23348300
Se   15.96944000    7.12722000   18.14719000      0.978417    0.50040200    1.32162500
Se   16.20949000   13.28364000    8.61077000     -0.845297   -0.26689800   -0.90799500
Se   16.36244000   13.05045000   18.15112000     -0.925885   -0.46434600    0.33873800
Se   15.70982000   18.86036000    8.46310000      0.586400    0.91398000    0.19983900
Se   16.45177000   18.58758000   18.05430000     -0.213839    0.07668000    0.44116500
Se   21.71182000    0.91017000    8.68015000     -0.044700    0.21789200   -0.29792700
Se   22.00463000    1.50027000   18.29886000     -0.368873   -0.38174600   -0.25465100
Se   21.54371000    7.17192000    8.90567000     -0.081768   -0.11691900   -0.64156800
Se   21.37620000    7.27691000   18.24461000      0.042640    0.69693400   -0.50388900
Se   22.13170000   13.18754000    8.54252000     -0.294616    0.51218200   -0.21312600
Se   21.75881000   13.26283000   18.11217000     -0.083244   -0.96565200    0.06851900
Se   21.82519000   18.39271000    8.31793000      0.674325    0.53444100    0.30473800
Se   21.84624000   18.44419000   17.94535000      1.182551    0.93978000    1.42214700
Se    1.46814000    1.50957000    6.14231000      0.775062   -0.64908400    0.27981300
Se    1.25144000    1.57146000   15.88758000      0.369661   -0.54348700    0.00657300
Se    1.36224000    7.18907000    6.00310000      0.776930    0.27467700   -0.04562600
Se    1.27508000    7.32650000   15.76532000     -1.591933   -0.93703700    0.51982200
Se    1.69753000   13.09377000    5.77570000      0.328645    0.33483700    0.07098000
Se    1.45887000   13.03264000   15.46057000      0.959800    0.32236000    0.34598900
Se    1.90606000   18.71855000    5.98459000     -1.155273    1.57954500   -0.88474600
Se    1.43347000   18.81195000   16.09786000      1.219192    0.06977900   -0.21873200
Se    7.23936000    1.79974000    6.06337000     -0.062725   -0.22354700    0.10839500
Se    7.30675000    1.85808000   16.04441000      0.442735   -1.20261800    0.46060100
Se    6.91773000    7.48328000    6.42612000     -0.306537    0.05327600   -0.00884500
Se    6.99681000    7.17916000   16.10577000     -1.317102    1.06876300   -0.64462900
Se    7.32200000   13.55731000    6.43700000      0.283420   -0.59127200   -0.33638500
Se    6.96707000   13.51824000   15.79576000     -0.182247    0.01955000   -0.13035300
Se    7.18161000   19.04056000    6.10862000     -0.101825   -0.17148700   -0.23263500
Se    7.29787000   18.87168000   16.03850000     -1.663704    1.32916800   -1.18925100
Se   13.02007000    1.80636000    6.23553000      0.886364   -0.43900600   -0.08928200
Se   13.26481000    1.62927000   15.88955000      0.073245   -0.48601000    0.15146400
Se   12.93746000    6.74249000    5.73697000     -0.023173    1.04049800    0.04849600
Se   12.78664000    7.09752000   15.92463000      0.614464    0.15148100    0.34544400
Se   13.11461000   13.59743000    6.32256000      0.507010   -0.82151500    0.22863200
Se   13.41469000   13.00083000   15.56809000     -0.571899    0.05242400    0.42148600
Se   13.00617000   18.81284000    6.08673000      0.026079    0.16884000   -0.42106300
Se   13.28206000   18.96294000   16.08341000     -0.228567   -0.39452500   -0.16600400
Se   18.79415000    1.50384000    6.05299000      0.120826   -0.63891800    0.50873700
Se   19.16114000    1.29790000   16.11416000     -1.550830    0.71425400   -0.58226400
Se   18.52567000    7.38143000    6.37567000      0.553848   -0.51509300    0.42212700
Se   18.59683000    7.26826000   15.51704000      0.524306    0.16139900    0.11064500
Se   19.07871000   12.92809000    6.14938000     -0.094171   -0.38887100    0.62941700
Se   18.50601000   13.10032000   15.71308000      0.739496    0.31927000   -0.41395300
Se   18.88047000   18.61712000    6.22664000     -0.981798   -0.54832100    0.35293300
Se   18.92681000   18.91761000   15.96994000      0.325246   -0.00467600   -0.31114100
Se    4.42115000    4.37430000    5.90804000     -0.290755    0.01122100    0.04194700
Se    4.10792000    4.31613000   15.84042000      1.088847    0.38543100   -0.25585100
Se    4.38470000   10.24204000    5.94931000     -0.043102   -0.14783900    0.44443400
Se    4.26332000   10.14232000   15.80715000     -0.178071    0.04859700    0.15523700
Se    4.72114000   16.20315000    5.79297000      1.035493    0.98536400    1.11575200
Se    4.56623000   16.14294000   16.14764000      0.022072   -0.17951700   -0.48621900
Se    4.73864000   21.97640000    6.01146000     -1.284405   -0.16984900   -0.06899000
Se    4.44924000   21.83741000   15.61020000     -0.731778    0.59087200    1.09897500
Se   10.04161000    4.97483000    6.45074000     -0.052002   -0.21928500   -0.29463400
Se    9.99543000    4.98819000   15.25115000     -0.116582   -0.76422400    0.74871900
Se   10.01908000   10.03013000    6.21327000     -0.726363    0.64879400   -0.02202900
Se    9.69302000   10.41159000   15.82026000     -1.084618   -0.09130800    0.00426400
Se   10.32907000   16.03345000    6.25157000      0.414110    1.08708500    0.18412900
Se   10.26262000   16.00428000   15.79364000     -0.990804    0.02984800    0.00225400
Se   10.06120000   21.59368000    5.79905000     -0.555014    0.07835000   -0.42505300
Se   10.06671000   21.47996000   16.55814000      0.333903    0.23357200   -0.64515900
Se   15.90149000    4.31791000    6.37824000      0.892523    0.28002400    0.29146100
Se   15.90916000    4.53446000   16.07799000      0.076113   -0.20087400   -0.33013100
Se   15.71645000   10.16079000    6.33395000     -0.365030   -0.10455800   -0.37953900
Se   15.91039000   10.32336000   15.76409000     -0.573242   -1.23308300   -0.24516100
Se   16.24079000   16.22100000    6.08139000     -0.474702   -0.39568600   -0.14405000
Se   16.32679000   15.69489000   16.25492000     -0.364659   -0.26334400   -1.04044900
Se   15.53899000   21.89312000    5.90448000      1.650552    0.73452100    0.47348700
Se   16.09136000   21.78266000   15.38265000      0.099016   -0.08754200    0.24548000
Se   21.44139000    4.76389000    5.79302000      0.993946    0.07369800    0.48362100
Se   21.64228000    4.63016000   15.66259000      0.969079   -1.21336100   -0.51335100
Se   21.78223000   10.10612000    5.94497000     -0.514323    0.22050700    0.94679000
Se   21.37769000   10.44929000   15.68112000      0.498667   -0.23104300   -0.09068700
Se   21.96135000   15.62866000    6.13366000      0.125685   -0.47900800   -0.63589500
Se   21.75079000   15.74521000   15.46416000      0.556291    0.31868200    1.29295900
Se   21.58712000   21.55249000    6.03738000      0.255720    0.25893600    0.05109800
Se   22.10431000   21.45906000   15.72688000     -0.652085    1.37789400    0.97047900
Se    4.50181000    1.72188000    3.52031000      0.275817    0.64511600   -0.29618300
Se    4.12642000    1.35947000   13.47337000      0.160363   -0.00381100   -0.03241800
Se    4.44831000    7.28935000    3.37799000     -0.540908    0.19306300    0.77707700
Se    4.62596000    7.37482000   13.59223000     -0.544809   -0.77307400    0.24946900
Se    4.62805000   13.47947000    3.56502000      0.434321   -0.47755500   -0.57742100
Se    4.42487000   13.08622000   13.36106000      0.019676   -0.00502600   -0.00973000
Se    4.37756000   19.00530000    3.27843000     -0.283540    0.20624000    0.46094700
Se    4.82218000   18.98347000   13.62959000     -0.242748    0.22432500   -0.19165800
Se    9.91127000    1.72174000    3.80151000     -0.138613    0.95618600    0.60106500
Se   10.35823000    1.23346000   13.58841000     -0.312988   -0.15713400    0.33171700
Se    9.90505000    7.36786000    3.81356000     -0.773520   -0.16964300    0.57139300
Se    9.81622000    7.53805000   13.79586000      0.692139   -0.39221900   -1.10182900
Se    9.95535000   13.15434000    3.86196000      0.436993   -1.13554300   -0.36273200
Se   10.33676000   13.08521000   13.70870000     -0.621189    0.30480300    0.07689900
Se   10.00729000   18.60273000    3.50473000     -0.518927    0.56233900   -0.03393100
Se   10.22977000   18.97097000   13.70508000     -0.150841    0.29108500   -0.08120300
Se   16.28934000    1.42037000    3.44204000     -0.846874   -0.61922900    1.01925200
Se   15.79607000    1.59487000   13.22723000      1.033292   -1.11813100   -0.71185800
Se   16.01942000    7.15597000    3.78664000     -1.499710   -0.09019600    0.82631100
Se   15.58383000    7.27144000   13.35144000      0.058748    0.75121200   -0.17520600
Se   15.98382000   13.00626000    3.88070000      0.933171   -0.81905600   -0.89517000
Se   16.67541000   13.41629000   13.26515000     -0.837845   -0.92327000    0.43132400
Se   15.59587000   18.64584000    3.32475000      0.096880    0.67678400    0.39762200
Se   16.03364000   18.65850000   13.04949000     -0.513479    0.91542600    0.84278400
Se   21.91308000    1.47974000    3.73975000     -0.091681   -0.19416900    0.15919300
Se   21.47670000    1.20974000   13.16749000      0.226649   -0.23910200    0.41694600
Se   21.81065000    7.44677000    3.98246000      0.213472   -0.58274300   -0.80453300
Se   21.85592000    7.45589000   13.64626000      0.048748   -1.10714400   -0.25825400
Se   21.84865000   12.88093000    3.47826000      1.106066   -2.15304700   -0.79146200
Se   21.98085000   12.97338000   13.35269000      0.740872   -0.43657800   -0.58570700
Se   22.21117000   18.48306000    4.00575000     -0.449780    0.88816700   -0.00115200
Se   22.03702000   18.76080000   13.92150000     -0.125331   -0.76457600   -0.37685700
Se    1.26343000    4.62518000    3.82759000      0.404718   -1.33104800   -0.20964100
Se    1.06421000    4.35840000   13.32629000      0.378999   -0.52332500    0.36210900
Se    1.53589000   10.18439000    3.68461000     -0.000945   -0.09086600   -0.15759100
Se    1.53106000   10.02225000   13.14592000      0.779827   -0.12774000    0.89336000
Se    1.59958000   16.02101000    3.36207000     -0.574597    0.00080200    0.09331900
Se    1.73689000   16.20406000   13.52224000     -0.431948   -0.67711400   -0.55562400
Se    1.53450000   21.82751000    3.68286000     -0.344323   -0.10690300   -0.13496900
Se    1.47546000   21.51826000   13.33525000      0.111926   -0.36985200   -0.29719200
Se    7.33770000    4.96679000    3.57594000      0.074955    0.56533600    0.38276900
Se    7.23976000    4.11073000   13.69693000     -0.871846    0.95631400   -0.82843700
Se    7.08072000   10.54271000    3.58298000      0.140823   -0.43350100    0.27987000
Se    7.16544000   10.24092000   13.04444000      0.034491    0.34756900    0.54233300
Se    7.42295000   16.14553000    3.62350000      0.564239    1.50304900    0.32129800
Se    7.34093000   16.06251000   13.13014000     -0.052803   -0.56552900    0.01864000
Se    7.13918000   21.92165000    3.29096000      0.022004    0.06073300    0.18999700
Se    7.60490000   22.08248000   13.51582000      0.024713    0.19014700    0.32104700
Se   13.17610000    4.22241000    3.69216000      0.938110    0.91276700    0.38854400
Se   13.17720000    4.32839000   13.35569000     -0.179976    0.46288000    0.25145300
Se   12.94433000   10.22290000    3.64010000     -0.253505   -0.36098300   -0.16951500
Se   12.71777000   10.28049000   13.67891000     -0.263073    0.94049300   -0.48087500
Se   12.96044000   15.77167000    3.91868000      0.701365    0.57081800   -0.09509400
Se   13.37943000   15.90871000   13.55326000     -0.075733    0.14050400   -0.23980200
Se   12.67291000   21.59357000    3.66411000     -0.147317   -0.41920400   -0.75423000
Se   13.15455000   21.74497000   13.45079000     -1.371468    1.13955700   -1.01748500
Se   19.06325000    4.32464000    3.51393000     -0.204343   -0.06028500    0.06357800
Se   18.75975000    4.20430000   13.82155000      0.210927   -0.33261400   -0.49952600
Se   18.55966000   10.17543000    4.11363000     -0.119315   -0.35128800   -0.67439600
Se   18.53692000   10.20027000   13.10044000      0.533326   -0.13411700    0.52709500
Se   19.18130000   15.82095000    3.77823000     -0.614936   -0.58337400   -0.33113500
Se   19.55618000   16.17952000   13.21400000     -0.929724   -0.21099200   -0.63872900
Se   18.91959000   21.24612000    3.53394000      0.894691    0.80801500    1.05772000
Se   19.34740000   21.80689000   12.90205000     -0.599862   -0.17068600    0.61168900
