384
23.23808000 23.23808000 19.51320000
Ge    5.85993000    5.63891000    9.94947000      0.323151    0.96418200   -1.06954300
Ge    5.37725000    6.10429000   19.40411000      0.449973   -0.40698700    0.13953400
Ge    5.77732000   11.98896000    9.89918000      1.185786   -0.55471800   -0.17942500
Ge    5.59863000   11.47502000    0.15007000      1.227970    0.12309200   -0.90967100
Ge    6.00907000   17.61187000    9.86769000      0.277535    0.29802400   -0.70501600
Ge    5.35257000   17.21260000    0.08988000      0.249092    0.14548800    0.28824700
Ge    5.79982000   22.87534000   10.03461000      1.041883    0.53926600    1.37360800
Ge    5.54903000    0.19538000    0.02576000      0.617058   -0.02919100    0.04326600
Ge   11.45079000    6.04217000    9.63802000      0.629857    0.14726500    2.18388000
Ge   11.68277000    5.98657000   19.41804000     -0.051607   -0.95219300   -0.47822700
Ge   11.55036000   12.13912000    9.93695000      0.777857    1.00120300    0.27036300
Ge   11.95744000   11.57723000   19.12381000     -0.356247   -0.07629600   -0.00568100
Ge   11.29450000   17.64945000    9.95493000     -0.218844    1.08686900   -1.72328500
Ge   12.14192000   17.59048000    0.00870000     -0.567301    0.30557500   -0.14082100
Ge   11.51552000   22.85243000    9.79149000      1.882545    0.91313700   -0.31073100
Ge   12.02200000    0.26789000   19.49823000     -0.562756   -0.68122200    0.34142000
Ge   17.20153000    5.53648000    9.53348000      1.255803   -1.01032700    0.61234600
Ge   17.47174000    5.50028000    0.01936000     -1.200756    0.80995500   -0.07672600
Ge   17.58096000   11.31408000    9.64142000     -1.739803   -0.18867300    0.38844200
Ge   17.22547000   11.55334000   19.22057000      0.745879   -0.90047100    0.05724600
Ge   17.44976000   17.27952000    9.44682000     -0.857237    0.28305300    1.39080000
Ge   17.47752000   17.45648000    0.47667000     -0.353648    0.57181200   -0.03876400
Ge   17.49965000    0.16621000    9.38333000     -0.366361   -0.29593100    1.00752900
Ge   18.00957000    0.10378000    0.00745000     -0.051719   -1.38333300    1.25764500
Ge   22.76004000    5.83530000    9.85441000      1.365534   -0.79480500    0.02591700
Ge   23.11383000    5.83501000   19.34351000      0.862277   -0.47285700    1.07616600
Ge    0.18080000   11.69058000    9.66459000     -0.567211    0.39197400    0.11433100
Ge   23.11288000   11.48490000   19.43704000     -0.068761    0.29971500   -0.57784700
Ge    0.46429000   17.62934000    9.66417000     -0.247482    0.18489900   -0.92750400
Ge    0.11224000   17.55638000    0.14879000     -1.010868    0.25192700    0.39669500
Ge    0.03221000    0.06070000    9.68818000     -0.945317   -0.50553800    0.39990000
Ge    0.13612000    0.12290000    0.23574000     -0.210096   -0.16365800   -0.06721100
Ge    2.58378000    5.75816000    7.54743000      0.704245   -0.12594700    0.03938800
Ge    2.58068000    6.00017000   16.81583000     -0.111814   -0.17008500   -0.11659300
Ge    3.24118000   11.68115000    7.60579000     -0.010549   -0.66591800   -0.82511500
Ge    2.70625000   11.61161000   17.07673000     -0.468505    0.81540300    0.00382300
Ge    3.44780000   17.55461000    7.32057000      0.073682   -0.90710800   -0.06085700
Ge    2.66950000   17.19743000   16.94629000      1.538160    1.07312100   -0.72420700
Ge    3.24458000    0.06319000    7.67838000      0.139560   -0.79081000   -1.82782600
Ge    2.78795000   23.18027000   17.12868000      0.193285    0.93101100   -0.02561600
Ge    8.87825000    5.80360000    7.14765000     -1.207911   -0.95508800   -0.20003500
Ge    8.63654000    6.05216000   17.04595000     -0.179446   -0.57064700   -0.09959100
Ge    8.84758000   11.88594000    7.50277000     -0.192636   -0.05029000   -2.18566200
Ge    8.88230000   11.48309000   16.98440000     -0.555368    0.51050300    0.34526700
Ge    8.73572000   17.06443000    7.09610000      0.694074    0.76783500   -0.16511400
Ge    8.40758000   17.24642000   17.75133000      0.909062   -0.21199100   -0.78126300
Ge    8.78878000    0.16966000    7.34639000     -0.635204   -1.97276400    0.45808400
Ge    8.95440000    0.18561000   17.28518000     -0.775952   -0.09540000    0.37598200
Ge   14.11741000    6.11223000    7.37655000      0.186228   -0.12957200   -0.76935100
Ge   14.77580000    5.62410000   16.96827000     -0.350490   -0.35121600   -0.90193000
Ge   14.57327000   11.57267000    7.28141000     -0.516139    1.06789200   -0.04691700
Ge   14.38897000   11.39068000   16.61911000      0.490512    0.39233600    0.15317300
Ge   14.40168000   17.32748000    7.29899000     -1.086202    0.61387500   -0.89823500
Ge   14.90241000   17.41186000   17.23476000     -0.239235    0.74607400   -0.37582600
Ge   14.61676000   23.02434000    7.02516000     -1.105300    0.12013200    1.20624900
Ge   15.00661000   23.21211000   17.37613000     -0.954701    0.63256300    0.47289000
Ge   20.20385000    5.87810000    7.16409000     -0.071756   -0.27596800   -0.28866100
Ge   20.70494000    5.72681000   16.88247000     -2.189705    1.94094000    0.66333000
Ge   20.52089000   11.39708000    7.44803000     -0.681828    0.36790500   -0.90082000
Ge   20.18313000   11.63090000   16.68255000      0.011180   -0.90761600    0.36513700
Ge   20.60584000   17.68575000    6.95756000      0.156547   -0.46766300    0.56068400
Ge   20.65413000   17.77647000   17.39060000     -1.131420   -0.64809700   -0.39059500
Ge   20.68103000    0.24933000    7.25987000      0.355469   -0.31459800    0.12766900
Ge   20.57278000   23.12946000   16.92897000      0.665844   -1.43555600    0.58226700
Ge    3.17166000    2.89553000    4.93168000      0.199780    0.86150300    0.47602800
Ge    2.68673000    2.76218000   14.55554000     -0.782519   -0.04348300    0.12585100
Ge    2.87690000    8.86358000    5.17702000      0.520696   -0.86870000   -1.00308500
Ge    2.69515000    8.93077000   14.46351000     -0.131100   -0.50996900   -0.51214700
Ge    3.10786000   14.38418000    5.17938000     -1.458828   -1.66870300   -1.02580800
Ge    2.48220000   14.39710000   14.31398000      0.334670    0.46706400    0.78977600
Ge    3.02004000   20.55622000    5.13699000      0.359449    0.78535800    0.81070200
Ge    2.92865000   20.20048000   14.65715000      0.090376   -1.83392500    0.86483700
Ge    8.57539000    2.67857000    4.66661000     -0.107038   -0.27606200    0.66033700
Ge    8.42900000    2.84671000   14.77717000      1.959725    1.43691900   -0.62108000
Ge    8.68561000    8.94054000    4.83194000      1.348076   -0.06328600    0.27062400
Ge    8.88061000    8.96965000   14.44673000     -1.648669    0.03248500    1.15317500
Ge    9.03794000   14.42703000    4.46887000     -0.492720   -1.05950400    0.08015500
Ge    8.58469000   14.51046000   14.83131000     -0.164481   -1.15877300    0.01551500
Ge    8.75593000   20.27152000    4.89681000      0.484553   -0.65601400   -0.29546100
Ge    8.99838000   20.10750000   15.20331000     -0.063556    0.13075100   -0.25476300
Ge   14.31303000    2.80699000    4.91178000     -0.440732   -0.44667600   -0.14505200
Ge   14.71720000    2.55410000   14.73823000     -0.383556    1.40035900    0.12921600
Ge   14.24705000    8.79528000    4.81843000      0.608642   -0.33384800    0.40068100
Ge   14.83552000    8.54935000   14.48130000      0.013829    0.50944300   -0.31530900
Ge   14.40506000   14.34752000    4.77914000     -0.881181   -0.55073500    0.35520100
Ge   14.68285000   14.89394000   14.65532000     -0.463393   -0.40413000    0.46616900
Ge   14.41060000   20.17081000    4.70403000     -0.392511   -0.66385600   -0.14023900
Ge   14.54388000   20.56251000   14.97848000     -0.344208   -0.40885500   -0.88785700
Ge   20.27921000    2.99390000    4.79695000     -1.026388    0.02192500    0.25938700
Ge   20.14101000    2.86948000   14.55634000      0.302482   -1.86917600    0.49822000
Ge   20.30843000    8.74048000    4.78746000      0.072870    0.82016200   -0.38697600
Ge   20.30450000    8.51263000   14.34077000     -0.582660    0.10790000    0.75501900
Ge   20.15972000   14.46560000    4.80052000     -0.676409    0.50916900    0.95529400
Ge   20.05467000   14.98053000   14.79814000      0.010480    0.17375400    0.29304400
Ge   20.64808000   20.72109000    5.00718000     -0.859635    0.73037900   -1.01337900
Ge   20.35228000   20.02487000   14.41430000     -0.368103   -0.25730200    0.55374900
Ge    5.77662000    3.09953000    2.51158000     -2.157602    0.17586000   -0.22481400
Ge    5.92155000    2.75325000   12.29729000      0.276043   -0.54751500    0.61509700
Ge    5.81705000    8.78013000    2.62540000      0.199898   -0.99892000   -0.89334700
Ge    5.76330000    8.67697000   12.27043000     -0.274596   -0.45966900   -0.59322100
Ge    5.90453000   14.30400000    2.31075000     -1.812448   -0.16661300    1.06337100
Ge    5.86643000   14.85687000   12.32738000      0.944586   -0.23039400    0.89485600
Ge    5.65419000   20.42392000    2.47792000     -0.004823   -0.11342800   -0.56087600
Ge    6.20743000   20.08723000   12.61055000     -0.900931   -0.31308300    0.34794800
Ge   11.75361000    3.07289000    2.35780000     -0.783948   -1.18407500   -0.08713300
Ge   11.63346000    3.39923000   12.40375000     -1.267952   -1.86474500   -1.05581900
Ge   11.59740000    8.83359000    2.38419000      1.374595   -0.14697800   -1.03515600
Ge   11.71644000    8.99413000   12.33668000      0.409604   -1.50555800   -0.78760500
Ge   11.83784000   14.31481000    2.11768000     -0.171374   -0.88791200   -0.38370000
Ge   11.57265000   15.22449000   12.44828000     -0.244990   -0.86983600    0.23014400
Ge   11.61426000   20.54341000    2.26719000      0.579057    0.05694000   -0.12600600
Ge   11.67343000   20.21887000   12.62014000     -0.406087    1.61428800   -0.65151800
Ge   17.15503000    2.64622000    2.55592000      1.221199    0.68619400   -0.03171200
Ge   17.29688000    2.64696000   12.07947000     -0.611698   -0.61104800    0.58853400
Ge   17.15612000    8.60226000    2.46190000      0.704945    0.41370200   -0.09274300
Ge   17.39993000    8.60481000   11.97277000      0.422266    0.14084300   -0.69848900
Ge   16.99426000   14.09846000    2.31671000      1.144484    0.53657300   -0.09619900
Ge   17.06657000   14.34212000   12.08214000      0.777194    0.92316900   -0.36302900
Ge   17.73436000   20.47007000    2.65909000     -0.111863   -0.33504500    0.24553900
Ge   17.25512000   20.37272000   12.00153000     -0.338727   -0.37364400    0.86130700
Ge    0.16656000    3.13449000    2.47187000     -0.158580    0.25475200    0.37007500
Ge   23.21501000    2.70274000   12.32683000     -0.623283    0.00417800   -0.99109700
Ge   23.02668000    8.75266000    2.47950000      0.350422   -0.01278900    0.03991700
Ge   23.04003000    8.62943000   12.01301000      0.022020   -0.52920300    0.27131100
Ge   23.21752000   14.20288000    2.43159000     -0.470499    0.21722900   -0.08662500
Ge   23.06056000   14.68362000   11.95985000     -0.995334    0.26421300   -0.46455600
Ge    0.25453000   20.30127000    2.65258000     -0.396236    1.68623600    0.13945200
Ge    0.15014000   20.32480000   12.06841000     -0.453361    0.76625300    0.15878500
Se    1.62559000    1.73372000    1.30990000      0.218506   -0.67538000   -0.59861900
Se    1.47391000    1.33779000   11.02155000      0.012072    0.20767700    0.62415700
Se    1.28874000    7.56034000    1.01136000     -0.401483   -0.47294800    0.07198000
Se    1.31407000    7.05570000   10.93470000     -0.724556    0.39122700   -0.09007800
Se    1.50066000   12.83067000    1.08597000     -0.474635    0.46687800    0.17277000
Se    1.49878000   13.44999000   10.77943000     -0.566360   -0.70806700    0.12174300
Se    1.60489000   18.82202000    1.46999000      1.022484   -0.20382700   -0.09136500
Se    1.84930000   19.06260000   11.06002000     -0.206971   -0.55768700   -0.53412100
Se    7.02264000    1.98133000    0.98935000      0.551111   -1.26342800   -0.78264300
Se    7.40549000    0.75668000   11.76774000     -1.282859    0.77144600   -0.98140500
Se    7.17191000    7.23566000    0.99163000     -0.811955    0.92150700    0.88429400
Se    7.44809000    7.13808000   11.28658000     -1.117070   -0.20611600   -0.40414900
Se    7.31273000   12.68666000    1.37340000     -0.427780   -0.15568700   -0.74888000
Se    7.39341000   13.27552000   11.35921000     -0.850084   -0.25107500   -0.28382200
Se    6.94205000   18.86686000    1.18855000     -0.376537   -0.74390500   -0.24058400
Se    7.66208000   18.83269000   11.07892000     -0.176856    0.36064900    0.51493400
Se   13.42334000    1.37806000    1.60088000     -0.854668    0.34983600   -0.78447200
Se   12.87464000    1.41636000   11.03618000     -0.571628    0.22999500    0.06703700
Se   13.23708000    7.10463000    1.17371000     -0.088956    1.16454300    0.86532200
Se   13.11269000    7.32736000   11.16946000     -1.201163   -0.21772900   -0.75516600
Se   13.43959000   12.88366000    0.84692000     -0.383668    0.72146000    0.52429400
Se   13.00319000   13.81458000   11.16179000     -0.226590   -0.92309400   -0.37210800
Se   13.46426000   19.36924000    1.23144000     -0.908823   -0.85916700   -0.42375000
Se   12.80411000   19.09841000   10.92758000      1.416508   -0.30713400    0.03202900
Se   19.14413000    1.51310000    1.59339000     -0.680804    0.29148900   -0.33182100
Se   18.95961000    1.40134000   11.05852000     -0.432438   -0.71786900   -1.20131800
Se   18.62328000    7.14804000    1.22290000      0.687597    0.29100300    0.41661100
Se   18.69400000    6.89468000   10.85415000      0.352762   -0.14197300   -0.08199800
Se   18.61728000   13.16007000    0.81330000     -0.177618   -0.14473100    0.29779400
Se   18.68439000   12.69871000   11.26552000      0.159923    0.32956500   -0.12689600
Se   19.17086000   18.63569000    1.85896000     -0.684913    0.23284400   -0.53834200
Se   18.73261000   18.91341000   10.90021000      0.095192   -0.79512900   -0.59781900
Se    4.13459000    4.75798000    1.55680000      0.384185   -0.23315500   -0.41763000
Se    4.40486000    4.11539000   10.95669000     -0.189948   -0.41158900    0.59851300
Se    4.17904000    9.98782000    1.20996000     -0.012643   -0.35762700    0.56282500
Se    4.37647000   10.16213000   10.74717000      0.623054   -0.02198500    0.47378100
Se    3.92238000   15.85868000    1.52782000      1.249223   -0.33369100   -0.03540900
Se    4.52488000   16.28099000   11.11177000     -0.810541    0.20109400   -0.43125000
Se    4.13196000   21.65766000    0.97650000      0.671240    0.52698400    0.36884200
Se    4.52006000   21.28995000   11.27262000      0.271618   -0.05118500    0.12750000
Se   10.19464000    4.48011000    1.10210000      0.351812   -0.39862400    0.13653400
Se    9.91808000    4.68722000   10.93448000      1.068153   -0.41872900    0.49958400
Se   10.44851000   10.10166000    0.72387000     -0.422284    0.08681500    0.54959600
Se   10.37514000   10.53537000   11.23324000     -1.007183    0.11687500   -0.31953900
Se   10.54537000   16.05096000    1.02693000     -0.105472   -0.19826600    0.19178700
Se    9.88797000   16.20449000   10.97534000     -0.367354   -0.80898700    1.17270700
Se   10.31503000   22.15818000    1.19397000      0.155044    0.35540700   -0.67107400
Se   10.09681000   21.47347000   10.93738000     -0.667557   -0.56729300    1.09230900
Se   15.79427000    4.19279000    1.32229000      0.614905    0.25344300   -0.59801700
Se   15.77806000    4.04851000   10.82482000     -0.067284   -0.09163300    0.01594500
Se   15.83811000   10.02164000    1.05700000     -0.068940    0.22142000   -0.08438700
Se   15.83745000    9.62306000   10.58677000      0.816723    1.48298000   -0.47812700
Se   15.74525000   15.96286000    1.62235000      0.175933    0.90979700   -0.89553500
Se   15.68744000   15.67307000   10.56258000      1.160308    0.55068300    0.00046600
Se   16.32755000   21.80034000    1.19874000      0.668830    0.26675800   -0.28929800
Se   15.90288000   21.71593000   10.65912000      0.486422    1.08470700   -0.67156400
Se   21.74012000    4.22519000    1.18672000      0.237971    0.86639000   -0.46376000
Se   21.62961000    4.10295000   10.95834000     -0.440202   -0.51341800    0.57604900
Se   21.58217000   10.47946000    1.42529000      0.153342   -0.78615300   -0.04727700
Se   21.69776000   10.33310000   10.95186000      0.555683    0.29838100   -0.43873900
Se   21.81854000   16.05169000    1.25533000      0.472509   -0.55873200    0.26358500
Se   21.89950000   16.26976000   10.38696000      0.168323   -0.44262800    0.60245400
Se   22.00251000   22.03279000    1.66377000      0.564301   -0.47886500   -0.05430000
Se   21.66759000   21.59166000   10.85943000      1.469579    0.66227900   -0.38805700
Se    0.86815000    4.31210000    8.47988000      0.629829    0.31467100   -0.14287800
Se    1.39512000    4.32059000   18.18294000     -0.153864    0.88898000   -0.17193300
Se    1.89183000   10.11763000    8.92184000     -0.365402    0.49413100   -0.12904800
Se    1.22390000    9.99959000   18.01685000     -0.191870    0.47025200    0.55353100
Se    1.86106000   16.07432000    8.44087000      0.247159    0.20651300    0.08616600
Se    1.30240000   16.06918000   18.35576000     -0.379506   -1.76350800    0.48110700
Se    1.71321000   21.86853000    8.73471000     -0.481162   -0.67662500   -0.17058700
Se    1.40138000   21.78157000   18.42228000     -0.327119    0.03744100    0.60016000
Se    6.89586000    4.18314000    8.24109000      1.101709    1.57053800    0.34019300
Se    6.87420000    4.68612000   18.12357000      0.185962    0.13189400   -0.18575900
Se    7.48008000   10.43726000    8.55794000     -1.793285   -0.46488100    1.12064900
Se    7.46512000   10.19276000   18.48563000     -0.125174   -0.30818700   -0.10780600
Se    7.31193000   15.85925000    8.63892000     -0.423604    0.20670700   -0.09002100
Se    6.80461000   15.56730000   18.49469000      0.227554    0.80955400    0.18940900
Se    7.36122000   21.71640000    8.74637000      0.767437    0.34312200   -0.95486100
Se    7.34134000   22.10264000   18.53170000     -0.250564   -0.10789300    0.15423000
Se   12.97764000    4.52481000    8.73361000      0.293306   -0.36946700   -0.41027000
Se   13.16140000    4.38089000   18.13740000     -0.741392   -0.13105900    0.28684000
Se   12.97105000   10.63260000    8.74003000     -0.600344   -0.92324300    0.50972300
Se   13.07288000    9.89650000   17.88960000      0.014534   -0.18208600   -0.11695400
Se   12.80305000   16.27147000    8.73865000      0.338727   -0.73058000   -0.28409800
Se   13.26151000   15.92520000   18.16104000     -0.044284    0.36226500    0.29492100
Se   13.25421000   21.44788000    8.56741000     -0.156336    1.31963500   -0.08048200
Se   13.37412000   21.76780000   18.42354000      0.045408    0.73132900    0.16493200
Se   18.86930000    4.20651000    8.19815000     -0.499641    0.31626700    0.58087700
Se   19.02742000    4.42042000   18.16660000      0.716010   -0.90770000   -0.20781000
Se   18.99878000    9.84447000    8.46179000      0.026075    0.09207700    0.19128400
Se   18.66957000   10.08594000   17.88559000      0.217455    0.37274400    0.21603000
Se   18.94023000   16.15379000    8.11075000      1.049510   -0.57122400   -0.38818800
Se   18.86521000   16.20174000   18.54187000      0.860583    0.25456500   -0.31858400
Se   19.19668000   21.96626000    8.46430000      0.023814   -0.02254200    0.04679800
Se   19.29604000   21.66102000   18.41185000     -0.174674    0.18183400   -0.26479600
Se    4.34692000    1.33057000    9.22227000      0.699070    0.99367200    0.28400800
Se    4.21305000    1.65668000   18.21428000     -0.395695   -0.65729300   -0.29879000
Se    3.85316000    7.14094000    9.16232000      0.879504   -0.90373000   -0.37515200
Se    3.91852000    7.57929000   18.11189000      0.067733   -0.57682500    0.02822400
Se    4.60128000   13.50010000    8.37373000      0.189656   -0.59722400    0.56899100
Se    4.36043000   13.00759000   18.29640000     -0.319820   -0.12304000   -0.06808800
Se    4.53267000   19.19577000    8.65686000      0.703666   -0.79058900    0.28359400
Se    4.32774000   18.68110000   17.99398000     -0.332890   -0.31939100    0.26318800
Se   10.54971000    1.26257000    8.31713000      0.243767    0.60886300    0.70680600
Se   10.50880000    1.70752000   18.20187000      0.309336    0.10240000    0.20187900
Se   10.01341000    7.43542000    8.48888000     -0.209662    0.39248700   -0.48990400
Se    9.98836000    7.45204000   18.65643000     -0.435630   -0.18069300   -0.97970600
Se    9.66703000   13.41791000    9.00627000      1.263312    0.55297600    0.29857300
Se   10.49472000   13.04331000   17.91768000     -0.331451    0.09400800    0.13833900
Se    9.75509000   18.86179000    8.41478000      0.350533   -0.54340100    0.02220000
Se   10.13274000   18.86510000   18.59183000      0.277954   -0.88006700    0.12517100
Se   15.90894000    1.57767000    8.05717000      0.341914   -0.75148200    0.32952700
Se   16.64043000    1.50558000   18.32989000     -1.169770    0.73629300   -0.44754900
Se   16.21637000    7.04560000    8.15837000     -1.010293    1.18581700   -0.62751600
Se   16.02970000    7.06122000   18.16778000      1.234134    0.35263000    1.27247600
Se   16.06661000   12.88752000    8.55467000      0.510236    0.13581700   -0.02406200
Se   15.63166000   12.84845000   18.12438000      0.087720    0.20663500   -0.45367600
Se   16.10727000   18.72978000    8.15088000     -0.296463    0.66917500   -0.02659300
Se   16.02349000   19.17605000   18.61299000      0.197041   -1.41206200    0.14860400
Se   22.11444000    1.81686000    8.49311000     -0.450804   -1.02997200   -0.32267200
Se   21.66198000    1.30790000   18.50314000      0.287730    0.65293900   -0.12911600
Se   21.58597000    7.30356000    8.51713000     -0.459820    0.71979500   -0.35472800
Se   21.92998000    7.43831000   18.14826000     -0.666207   -0.57120400   -0.54656200
Se   21.80332000   13.16619000    8.28441000      0.592231   -0.74176300    0.86366100
Se   21.53622000   12.97792000   18.09860000      0.743191   -0.15202400    0.57302400
Se   22.30027000   19.05641000    8.08128000     -0.215090   -0.42749600    0.47410300
Se   22.24232000   19.30538000   18.48560000     -0.825046   -0.54745100   -0.21537800
Se    1.88419000    1.39654000    6.16533000     -0.810758   -0.39993300    0.65226300
Se    1.12977000    1.06766000   15.84437000      0.835118    0.89337400   -0.47996900
Se    1.36855000    7.43513000    6.30683000     -0.163249   -0.25566300    0.13031000
Se    1.01385000    7.61335000   15.59455000      1.076567   -0.68443000    0.34752300
Se    1.46873000   12.61429000    6.35356000      1.052183    1.16710600   -0.34063500
Se    1.13985000   13.11640000   15.91200000      0.271237   -0.21940000   -0.30719000
Se    1.81925000   18.90883000    6.36286000     -0.730083    0.32296400   -0.44071300
Se    1.29255000   18.54893000   15.63313000     -0.062689    0.99455600   -0.50243400
Se    7.18189000    1.26410000    6.14721000     -0.678635    0.74799700   -0.69587900
Se    7.24929000    1.45245000   16.17775000     -0.658328   -0.50656000    0.24580200
Se    7.35454000    7.38949000    5.94678000     -0.104711   -0.87642600    0.52863800
Se    7.27186000    7.32963000   15.40822000      1.159479    0.04454600    0.79766000
Se    7.40100000   13.01453000    5.76635000      1.098519    0.55256500    0.41227300
Se    7.15961000   12.74559000   15.83236000      0.764001    0.44629300   -0.13284400
Se    7.31772000   18.58111000    5.80612000     -0.052956   -0.14565100    0.09522600
Se    7.32779000   18.95342000   16.42398000     -0.305329   -0.14449100    0.11242100
Se   12.84556000    1.14565000    5.98324000      0.823873    0.44380300   -0.06270200
Se   13.32289000    1.13977000   16.08037000      0.375154    0.46082300    0.12026300
Se   12.72914000    7.89941000    6.35926000     -0.240582   -1.02981800    0.60237900
Se   13.45139000    7.34071000   15.90783000     -0.828960   -0.34290200   -0.08611400
Se   12.82851000   12.82946000    6.11158000      1.436527    0.48534400   -0.28877600
Se   13.13597000   13.37242000   15.92911000      0.217517    0.18917300   -0.34458400
Se   12.76820000   18.79173000    5.83925000      1.353500   -0.48344400    0.40618500
Se   13.06348000   18.79697000   15.93858000      1.733771    0.40483200    0.64530000
Se   18.93442000    1.37398000    6.14543000      0.588276    0.55672200   -0.61477600
Se   18.94297000    1.05175000   15.81589000     -0.391299    1.22548600   -0.79170100
Se   18.73835000    7.30445000    5.77392000      0.004893   -0.43076400    0.60713200
Se   18.89420000    7.30434000   15.91046000      1.152311   -0.63540900   -0.21671900
Se   18.88249000   12.65705000    6.14796000      0.869558    0.62185700   -0.29792600
Se   18.59585000   13.20144000   15.86741000      0.604001    0.62954500   -0.48885500
Se   19.10943000   19.26862000    5.95813000     -0.276272   -0.52977600    0.55540900
Se   18.80721000   18.75270000   15.96217000      1.923705   -0.00062500    0.02058300
Se    4.40804000    4.51501000    6.29617000     -0.795642   -0.07242800    0.00275300
Se    4.06177000    4.38065000   15.62220000     -0.125412    0.45693000    0.53521300
Se    4.65618000   10.10933000    6.08051000     -0.546742    0.56533400    1.06063600
Se    4.20186000   10.33564000   15.83154000      0.274038   -0.53538900   -0.73452400
Se    4.70227000   15.90437000    5.83863000      0.247276    0.94060700    0.73967500
Se    4.02559000   15.71889000   15.66207000     -0.101089   -0.27389700    0.13215600
Se    4.76577000   21.81832000    6.25994000     -0.916792    0.37764800    0.48182600
Se    4.14675000   21.41689000   16.28417000      0.700116    0.19641400   -0.15205500
Se   10.10316000    3.94786000    5.96486000      0.338554    0.89900400    0.52132400
Se   10.16013000    4.28542000   16.25188000     -1.300646    0.05050800   -0.59767900
Se   10.26875000   10.41163000    6.07811000     -0.228855   -0.14294500    0.11480300
Se   10.45991000   10.22854000   15.69788000     -0.478638   -0.19091300   -0.14843800
Se   10.45925000   15.96189000    5.59050000     -0.593215    0.30401500    0.74379000
Se    9.88119000   15.88899000   16.18018000      0.289791    0.72776500    0.93453600
Se   10.15639000   21.78929000    6.10993000     -0.183496   -0.10626100    0.02286200
Se   10.32993000   21.92097000   16.13326000      0.508278   -0.44497700   -0.18097400
Se   15.45816000    4.66675000    5.86042000      0.417500    0.03411600    0.71793400
Se   16.22747000    4.43389000   15.46104000     -0.658310   -0.69168800    0.29742500
Se   15.83243000    9.97262000    6.13932000      0.757265   -0.05305400   -0.18041500
Se   16.21611000   10.19695000   15.58734000     -0.281805   -0.05756900   -0.24044600
Se   15.77393000   15.69400000    6.15640000      0.141350    0.32493900    0.17193700
Se   16.42462000   16.22841000   15.63054000     -0.565620    0.30296600    0.57624200
Se   15.95782000   21.42456000    5.98000000      0.461075    0.16993700    0.04493100
Se   16.39014000   21.85685000   16.17600000      0.014679   -1.27708800   -0.98514800
Se   21.75554000    4.29440000    6.08065000     -0.068605    0.65360100    0.21932100
Se   21.80441000    4.07182000   15.71457000      0.822268   -0.22577300   -0.12217100
Se   21.92965000    9.90824000    6.21946000     -0.263012   -0.13549400   -0.32023600
Se   21.74140000   10.13316000   15.43395000     -0.458347    0.46490400    0.21346700
Se   21.95282000   16.07603000    5.71328000     -1.203348   -0.22255500    0.11284000
Se   21.95320000   16.03623000   16.13817000     -1.314452    0.28403500   -0.10458600
Se   22.29945000   22.04954000    5.95937000     -0.443515    0.70093700    0.70571700
Se   21.89879000   21.43925000   15.64798000     -0.050025    0.23613200    0.13918300
Se    4.38771000    1.39112000    3.67083000      1.053846    0.30661900   -0.60177500
Se    4.25232000    1.27231000   13.62317000      0.706922    0.45851300   -0.43887300
Se    4.45222000    7.19767000    3.86309000     -0.397458    1.26404700    0.26559800
Se    3.79026000    7.24632000   12.95659000      0.635577    1.12093100    0.57875100
Se    4.67928000   12.73113000    4.11255000     -0.276911    1.49236500   -0.73246700
Se    4.32122000   13.28733000   13.20570000     -0.322613   -0.60771500    0.08508900
Se    4.09605000   19.12739000    3.71062000      0.681008   -1.03890800   -0.54633800
Se    4.44366000   18.52619000   13.83692000      0.796947    1.11416300   -0.53720300
Se   10.30295000    1.25410000    3.91417000      0.379091    0.96965400   -1.00507400
Se   10.23082000    1.54081000   13.47187000     -0.310996    1.39630200    0.22783500
Se   10.10508000    7.44195000    3.41733000     -0.836942   -0.34723500    0.79057400
Se   10.02447000    7.48517000   13.16582000      0.776573   -0.46254000   -0.64022800
Se   10.79169000   12.75251000    3.64932000     -1.072942    1.01016100   -0.31446800
Se   10.21385000   13.39745000   13.43425000      0.072833    0.45498300    0.01802700
Se   10.03288000   19.10339000    3.14700000     -0.406183   -0.80177900    0.82996900
Se   10.45710000   18.60820000   13.76437000     -1.012689    0.28137100    0.74655000
Se   15.67841000    1.20628000    3.67846000      0.164225   -0.18446900    0.57187400
Se   16.02065000    1.00339000   13.64053000      0.810753    0.54049200   -1.20129500
Se   15.63979000    7.13588000    3.78858000      0.474423    0.56949300   -0.33912700
Se   15.96697000    7.12739000   12.95906000     -0.634652   -1.01298500    1.11210200
Se   15.68276000   12.69759000    3.58181000     -0.444559   -0.75011300    0.49028500
Se   15.64659000   13.10793000   13.45056000     -0.006695   -0.34270700   -0.02356900
Se   16.18421000   18.80875000    3.69614000     -0.166754    0.81826100   -0.06284600
Se   15.54166000   19.07169000   13.20703000      0.111865    0.55795500    0.25975200
Se   21.91336000    1.68230000    3.65594000     -0.048339   -0.40153300    0.05180700
Se   21.80363000    1.27925000   13.67527000     -0.170704    0.53069500   -0.30595200
Se   21.60848000    7.15215000    3.59320000      0.360555    0.28004800   -0.19859900
Se   21.66646000    6.93745000   13.22477000      0.048565    0.74177000   -0.36951300
Se   21.50507000   12.91697000    3.72706000      0.781959   -0.31710200   -0.87861400
Se   21.31369000   13.57942000   13.34600000      0.616559   -0.71783900   -0.59675000
Se   21.67611000   19.12967000    3.54231000     -0.097891   -0.46955100    0.42510200
Se   21.61481000   18.81602000   12.69955000     -0.260711   -0.29815000    0.79587400
Se    1.79007000    4.42070000    3.72382000     -0.584187    0.29080600   -0.00059500
Se    1.48675000    4.32056000   13.02158000      0.373954   -0.23069200    1.01384400
Se    1.34905000   10.17249000    3.82455000     -0.078852   -0.20195000   -0.26281100
Se    1.11892000   10.24352000   13.14457000      0.495118    0.15873500    0.37301300
Se    1.28250000   15.61407000    3.87305000      0.661854   -0.14499900    0.21945000
Se    1.16642000   16.11392000   13.21304000      0.512235    0.02984500    0.46283700
Se    1.50355000   21.97658000    4.04508000     -0.378380   -0.38341400   -0.65049700
Se    1.75798000   21.68758000   13.41702000     -1.292198    0.76665800   -0.91993700
Se    7.22439000    4.40195000    3.75024000      0.395882    0.48130000    0.32212900
Se    7.16526000    4.59333000   13.44655000     -0.002000   -1.61819300    0.32410800
Se    7.37788000   10.39158000    3.57299000     -0.560601    0.13134900   -0.27429400
Se    6.79067000   10.16132000   13.82828000      0.455025    0.38809500   -0.38316700
Se    7.57568000   15.78290000    3.00010000      0.740231    0.43096500    0.65165100
Se    7.30184000   16.16383000   13.86764000     -0.943132    0.25600600   -0.83070900
Se    7.36409000   21.64567000    3.62275000     -0.749856    1.12825700   -0.34583200
Se    7.33111000   21.58748000   14.21797000      0.052784   -0.57725100   -0.88894100
Se   13.30593000    4.42000000    3.43479000     -0.171950    0.32189200    0.48102800
Se   13.31658000    4.40731000   13.69287000      0.388466   -0.39074700    0.04317500
Se   12.89796000   10.34895000    3.74330000     -0.297477    0.23735000   -0.66200400
Se   13.34979000   10.18021000   13.41765000      0.581678    0.49311100    0.82331700
Se   13.21782000   15.81427000    3.26676000      0.152570    0.33022600    0.85274100
Se   13.10490000   16.54538000   13.86255000     -0.494442   -0.26106400   -0.40472100
Se   13.07249000   21.84696000    3.61666000      0.332329   -0.03093400    0.16377300
Se   12.89148000   22.01882000   13.64321000      0.434562   -0.59084500    0.35566600
Se   18.39313000    4.30547000    3.94688000      0.187741   -0.62583100   -0.35010700
Se   18.78580000    4.12156000   13.20984000     -0.405743    1.33607200   -0.04585300
Se   19.00728000   10.26140000    3.26676000     -0.596815   -1.27168000    0.55918700
Se   18.80434000   10.05244000   13.21701000      0.321233   -0.17356300   -0.05969300
Se   18.24501000   15.62779000    3.73333000      0.837770   -0.33656200    0.19203600
Se   18.38419000   16.18241000   13.43494000      0.151443   -0.70595300   -0.43786700
Se   18.79917000   22.19689000    3.98308000      0.664447   -1.04759200    0.10292100
Se   18.49827000   21.37611000   13.84299000     -0.143055    0.65867400   -0.95156200
