384
23.23808000 23.23808000 19.51320000
Ge    5.71009000    5.40007000   10.06526000     -0.770071    1.32369300   -0.78986700
Ge    5.68684000    5.94855000   19.34831000      1.086025    2.12520200   -0.77548400
Ge    5.76616000   11.63063000    9.59873000     -1.048716    0.44293100   -0.86681700
Ge    5.37698000   12.12493000   19.43923000     -0.824339   -0.73509300    0.25550300
Ge    6.21453000   17.33335000    9.87177000     -0.253712    0.31074400   -0.80214900
Ge    6.02480000   17.64376000   19.47715000     -0.485495    0.74551000    0.65136100
Ge    6.17778000   23.18176000    9.56588000     -1.042715    1.01922600    1.26935300
Ge    5.72643000    0.33113000   19.45654000      0.363303    0.56815100   -0.05785400
Ge   11.59985000    5.84047000    9.88492000     -1.525248    0.85508800    2.28968900
Ge   11.53089000    5.68116000    0.17957000      0.024667   -0.27324600   -0.44069800
Ge   11.54073000   11.35302000    9.76300000     -0.088748    0.88381500    0.32402000
Ge   11.28907000   11.56993000   19.49803000     -0.919363   -0.72600600   -0.38447200
Ge   11.87572000   17.49978000   10.03025000     -0.181738    0.17770400   -0.88392500
Ge   11.57907000   16.95502000   19.45333000     -0.043661   -0.95150500   -0.47060000
Ge   11.41618000   23.08074000    9.66198000      0.253414    1.33693900   -0.88184600
Ge   11.63466000   22.95488000   19.33441000     -0.421818    1.12175300    1.05310500
Ge   17.15486000    5.83524000    9.74682000      0.302452   -0.42362700    0.32792800
Ge   17.15147000    5.81724000    0.14168000      0.668942   -0.43004700   -0.20577000
Ge   17.75487000   11.87254000    9.74294000     -1.173554    0.92174500    0.64193000
Ge   17.56200000   11.60171000    0.41148000     -0.868547   -0.19435700   -1.15378900
Ge   17.46181000   17.60262000    9.55054000      0.106572    0.98706300    1.34023400
Ge   17.57182000   17.20635000   19.46704000     -0.044045   -0.37714900    0.09951400
Ge   17.62544000   22.90622000    9.86657000     -0.848953    1.58143400    0.09740700
Ge   17.35474000   22.89218000   19.34969000      0.484533    1.03528000    0.69647900
Ge    0.04505000    5.72732000    9.68225000      0.524423    0.00195100    0.18830700
Ge   22.88637000    5.72668000   19.29658000      0.532861   -0.32343800    0.15431000
Ge   23.21694000   11.59866000    9.79310000     -1.023314   -0.18243800   -0.31943400
Ge   23.18355000   11.61016000   19.36346000     -0.356061    0.43978000   -0.06013100
Ge    0.05504000   17.03679000    9.57546000      1.454004    0.78728200   -0.37733500
Ge   23.19852000   17.25424000   19.50672000      0.861660   -0.31621100    0.22399000
Ge    0.06150000   23.00342000    9.86318000      1.832616   -0.88817600    0.41633000
Ge    0.05754000   23.06774000    0.14624000      0.085622    0.80406800   -0.76334500
Ge    2.96593000    5.68447000    7.25982000      0.466256    1.50726000   -0.06945600
Ge    2.64707000    5.73995000   16.99365000      1.389748   -0.32898500   -0.34529000
Ge    2.67885000   11.50117000    7.15590000      0.616781    0.14485700    1.48928800
Ge    2.88764000   11.62485000   16.96837000     -0.499569    0.02703000    0.08610400
Ge    3.34732000   17.52814000    7.32883000     -0.694450   -0.18618700   -0.86765500
Ge    3.00539000   17.62211000   17.43859000     -0.146157   -1.44280300    0.38065500
Ge    3.08716000   23.20198000    7.38814000     -0.750008    0.98450700   -0.73405600
Ge    2.76824000   23.10148000   16.95874000      0.752202    0.62996200    0.15603600
Ge    8.55281000    6.32733000    7.82777000     -1.878557   -1.43105700   -0.57050500
Ge    8.72788000    6.03128000   16.96004000      0.052046   -0.19694800    1.36584900
Ge    8.78600000   11.95451000    7.39100000      0.640287   -0.53578000   -1.01420500
Ge    8.28618000   11.94247000   16.96335000      0.613424   -0.87316300    0.81640300
Ge    9.06848000   18.02885000    7.25562000     -0.077369   -1.99597300    0.11730100
Ge    8.76322000   17.45935000   16.93969000     -0.978075    1.08999200    0.20245500
Ge    8.60650000   23.05043000    6.93938000     -0.619079    0.55580000    0.46052500
Ge    8.64700000    0.05162000   17.12363000     -0.213371    0.51431400    0.96259500
Ge   14.14023000    5.57651000    7.41058000      0.190033    0.40813800   -0.56915400
Ge   14.25767000    5.61935000   17.44280000     -0.186528    0.64943900   -0.71018300
Ge   14.35915000   11.80504000    7.41066000      0.579399   -0.76516700    0.68896300
Ge   14.44768000   11.65034000   17.11726000      0.703718   -0.16601600    0.88013900
Ge   14.52825000   17.41616000    7.25604000      0.356014    0.22948000   -0.80120100
Ge   14.62673000   17.19470000   17.01136000      1.673003    0.40977100   -0.55108800
Ge   14.23718000    0.09900000    7.36043000      1.237459   -0.62866000    0.46935300
Ge   14.64259000   23.14236000   16.83244000      0.269407   -0.33445800    0.34852900
Ge   20.18380000    5.72269000    7.46183000     -0.228511    1.58167100   -0.49701300
Ge   19.99847000    5.78559000   16.73926000      1.160066   -0.51774100    1.36428600
Ge   20.65004000   11.80460000    7.40807000     -0.261903   -1.28532500    0.49085700
Ge   20.10008000   11.80593000   17.09143000      0.133860    0.25128700   -0.30216200
Ge   20.33759000   16.91373000    7.15568000     -0.346529    1.03189400    0.49681800
Ge   20.36150000   17.01063000   16.70883000      0.108460    0.40231100    1.45681400
Ge   20.21960000   23.08742000    7.23381000     -0.065070   -1.80277300    0.00975500
Ge   20.60181000   23.10118000   17.06952000     -0.001233    0.58631500    0.17557200
Ge    2.91848000    3.01441000    4.75554000     -1.170775    0.06049400    0.71875500
Ge    2.63823000    2.92024000   14.57161000      0.341751   -0.50021600   -0.47937700
Ge    3.00909000    8.63845000    4.86796000     -1.997360   -0.34998200   -0.83714700
Ge    2.82435000    8.60577000   14.55193000      0.524607    0.31256400    0.75836200
Ge    3.20325000   14.86770000    4.82439000     -0.578199   -1.03139400   -0.97009900
Ge    3.13778000   14.65059000   14.80968000      0.056399   -0.72093600   -0.35325400
Ge    3.17104000   20.52244000    4.76493000     -0.976497   -1.99603900   -0.24951100
Ge    2.91714000   20.22306000   14.57946000      0.184283    0.54749500    0.66365700
Ge    8.66671000    3.53169000    4.97032000     -0.576991   -0.92896200    0.01369500
Ge    8.99392000    2.79902000   14.56602000     -3.270829    1.23498800    1.87838300
Ge    8.29540000    8.87333000    4.97499000     -0.257388   -0.73398000   -0.18461100
Ge    8.19416000    8.85038000   14.74693000     -0.284414    0.87159700   -0.68215400
Ge    8.71572000   14.78492000    5.09734000      0.054594    1.47766900   -0.82795200
Ge    8.77535000   14.59220000   14.48709000     -0.942022    0.00988600    0.48248300
Ge    8.49200000   20.35925000    4.48724000      0.401667   -0.40055600   -0.10656500
Ge    8.67358000   20.50013000   14.86088000      0.122773   -0.89624200   -1.47572600
Ge   14.79993000    2.83118000    4.94814000     -0.210030    0.44168800   -0.67199400
Ge   14.75965000    3.06717000   14.81488000     -0.595153   -0.70075100   -1.01055100
Ge   14.37918000    8.56452000    4.80180000      0.077197   -0.12271500    0.92550200
Ge   14.16538000    8.79940000   14.77509000     -0.024361   -0.43305400   -0.31914400
Ge   14.75513000   14.60308000    5.08838000      2.014653    0.59965200   -1.12399800
Ge   14.99615000   14.47513000   14.56161000      0.436739   -0.04353400   -0.14056400
Ge   14.36980000   20.32568000    4.67550000      0.073578    0.48721600    0.56353500
Ge   14.58172000   20.19052000   14.46339000      0.783320    1.24556100    0.40437700
Ge   20.33906000    2.82581000    4.87696000      1.018004   -0.54641300    0.40248700
Ge   20.43644000    2.65958000   14.64677000     -0.620498    1.62543400    0.76356300
Ge   20.09492000    8.74363000    5.13295000     -0.316795   -0.95909600   -0.12657000
Ge   20.10317000    8.85321000   14.40774000      0.095574    0.11255500    0.11109500
Ge   20.49364000   14.26212000    4.80575000      1.499455   -0.90360600    0.66848300
Ge   20.45119000   14.23868000   14.36789000     -0.786152   -1.32686300    1.12247100
Ge   20.39300000   19.84901000    4.99084000     -0.636733   -1.06310900   -0.63285300
Ge   20.39052000   20.32355000   14.55352000      0.885824   -0.81846500    1.10852000
Ge    6.05229000    3.34153000    2.42860000     -0.267934   -0.56762900    0.75530600
Ge    5.98628000    2.70518000   12.30718000     -2.251461    1.12434700    1.41954500
Ge    5.67559000    8.93433000    2.40300000      1.223349    1.15910000   -2.22805600
Ge    5.59008000    8.80897000   12.10238000      0.055533    0.43900500   -0.29720900
Ge    6.08848000   14.84057000    2.15693000     -0.732378   -0.73912100    1.24675200
Ge    6.00142000   14.42312000   12.00759000     -1.275867    0.27239800    0.50820500
Ge    5.37753000   20.71432000    2.07198000      1.234865    0.28317800   -0.07663100
Ge    6.17730000   20.52702000   12.19642000     -0.235508    0.05074000    0.55821800
Ge   11.56578000    2.98151000    2.49739000      0.006299   -1.05074500    0.64097900
Ge   11.94642000    2.74296000   12.42992000     -0.837607    1.11289800   -1.38074200
Ge   11.30972000    8.71896000    2.71035000     -0.274624   -1.01993200   -1.36886200
Ge   11.04646000    9.02024000   12.44186000     -0.362190   -0.09781100   -0.26106900
Ge   11.66774000   14.15841000    2.65920000      0.601746    1.38362600   -1.13144800
Ge   11.77130000   14.44559000   12.38788000      0.098980    0.81721400   -0.11545200
Ge   11.47621000   19.91431000    2.25484000     -0.035617    0.87223400    0.04649300
Ge   11.50751000   20.41294000   12.31410000     -0.353042    0.44480300   -0.97336700
Ge   17.78980000    2.81366000    2.27290000     -0.801361   -0.31575400    0.01610800
Ge   17.50771000    2.81743000   12.08652000     -0.036683    0.57024000    1.07600800
Ge   17.35214000    8.76004000    2.76097000      0.431296   -1.16586400    0.23801600
Ge   16.99145000    8.99417000   12.15091000     -0.725194   -1.52985100   -0.93742000
Ge   17.66615000   14.36069000    2.60044000     -0.774315   -0.99926700   -0.25085100
Ge   17.83659000   15.07362000   12.03575000      0.214200   -0.99311000   -0.14616100
Ge   17.23389000   20.04405000    2.41417000      0.588172   -0.02426400   -0.22793800
Ge   17.61248000   20.23657000   12.23109000      0.581033   -0.25433600    0.44471300
Ge   23.19754000    3.04541000    2.41821000      0.618428   -0.04545300    0.49717100
Ge   23.07750000    2.76975000   12.14578000     -0.464099   -0.50546900   -0.31548200
Ge    0.18602000    8.65653000    2.38632000     -0.715553    0.30407400    0.85091000
Ge    0.00008000    8.44265000   12.10121000      0.426107    0.74913500    0.33238600
Ge    0.01684000   14.42575000    2.37342000      0.503777    0.32426100   -0.65678000
Ge    0.34097000   14.58286000   12.28926000      0.010236   -0.62119200   -0.07901200
Ge   23.16763000   20.29980000    2.54536000     -0.301832   -0.92763700   -0.39273600
Ge    0.22372000   19.71311000   12.25414000      0.937218    1.62580500   -0.14817900
Se    1.49549000    1.40597000    1.34569000     -0.538193    0.19692400    0.03137800
Se    1.44458000    1.40979000   11.09147000     -0.120033   -0.62966500   -0.50577300
Se    1.18939000    6.89113000    1.21795000      0.867149   -0.02995300   -0.12604300
Se    1.61040000    7.14631000   10.91525000     -0.592028   -0.32558400   -0.05572400
Se    1.46433000   12.96238000    1.10198000     -0.099654    0.12220200    0.04593200
Se    1.50598000   12.81592000   11.00650000      1.021867    0.80638100    0.83310900
Se    1.36419000   18.96826000    1.12237000     -0.189385   -0.46177200   -0.12359100
Se    1.71513000   18.46276000   10.83296000     -0.953699   -0.04071700   -0.08986900
Se    7.34354000    1.69939000    1.29532000     -0.011247   -0.58968800   -0.39767300
Se    7.33264000    1.84588000   10.77198000      1.562347   -1.63727200   -1.37333300
Se    7.19519000    7.59550000    0.92990000     -0.933292    0.02923700    0.32069000
Se    6.87614000    7.16151000   11.04217000      1.423792    0.35970400    0.20339600
Se    7.19378000   13.30509000    0.83284000      0.852725   -0.30795900   -0.13925300
Se    7.26573000   12.97687000   10.65121000      1.201132    0.96778100    0.61789600
Se    7.24832000   19.40823000    1.01493000     -0.270278   -0.02211700    0.07819800
Se    7.46970000   19.08815000   10.92616000      0.995292   -0.43443000   -0.06933700
Se   12.76598000    1.28379000    1.40986000      1.033140   -0.65185800   -0.58866500
Se   12.94451000    1.42406000   10.73748000      0.715144   -0.42561200   -0.00351800
Se   12.92462000    7.15044000    1.34212000     -0.400245    0.83892500    0.75162800
Se   12.62706000    7.73950000   11.13928000      0.299479   -0.41859300   -0.12583000
Se   12.93361000   12.76849000    1.10642000      0.556073    0.56037100    0.85504400
Se   12.96252000   12.72910000   11.28101000      0.375369    0.17066200   -0.44710800
Se   12.87934000   18.10514000    1.43122000      1.038007    1.39163500    0.48526000
Se   13.13938000   19.32257000   10.92208000     -0.268478   -0.45564100    0.09470800
Se   19.02727000    1.34026000    0.87805000     -0.750048   -0.52847900    0.07059600
Se   18.98038000    1.47820000   10.75783000      0.075702   -0.26897000   -0.06244800
Se   18.61928000    7.12022000    1.55074000      0.710236    0.04788200   -0.26658100
Se   18.57128000    7.37802000   10.87868000     -0.616878    0.57364400    0.29608800
Se   19.16277000   12.62888000    1.77427000     -0.183453    0.71168500   -0.11406100
Se   19.24600000   13.42611000   10.91269000     -0.560397   -0.29122400   -0.24459500
Se   18.80667000   18.71517000    1.20087000      0.667505    0.27770200    0.30119200
Se   19.14254000   18.91496000   11.06655000     -0.800744   -0.66003600   -1.08888000
Se    4.53512000    4.42479000    1.00598000     -1.732340   -0.83675900    0.68289800
Se    4.27388000    4.12022000   11.20982000     -0.745112   -0.78226700    0.70961800
Se    4.06438000   10.38885000    1.30864000      0.495017    0.65418800   -0.57904800
Se    4.29251000   10.23505000   10.64545000     -1.061061   -0.83228800    0.83178300
Se    4.51013000   16.28706000    1.32157000     -0.119842    0.58600700   -0.83834100
Se    4.52785000   16.09527000   10.96561000      0.329401   -0.48850000    0.10139300
Se    3.98731000   22.52548000    1.13224000      0.530976   -1.18864900    0.55934100
Se    4.74841000   21.94657000   11.15663000     -0.743855    1.08334800   -0.97657100
Se   10.05934000    4.19571000    1.29288000     -0.959647    0.87526300   -0.47955200
Se   10.23916000    4.26857000   11.34625000      0.889494    0.29780700   -0.29400400
Se    9.77256000   10.16045000    1.49163000      0.830478    0.48861600   -0.60434600
Se    9.67963000   10.64774000   11.01118000      0.411071   -1.03210500    0.69045500
Se   10.17477000   15.62341000    1.28627000      0.080288   -0.54097800    0.26203800
Se   10.30979000   16.06185000   11.16306000      0.550494   -0.19316600    0.18588200
Se   10.09172000   21.59926000    1.05929000      0.423830   -0.53530200   -0.03291200
Se   10.03911000   22.07818000   11.15234000     -0.393776   -1.24228500    1.06804100
Se   15.97547000    4.08605000    1.34156000      0.073009    0.24209700   -0.20815800
Se   15.91833000    4.27755000   11.11035000      0.167976    0.29157000   -0.36517800
Se   15.99025000   10.02265000    1.44307000     -0.770338    0.96273900   -0.90682900
Se   15.95522000   10.92169000   11.09643000      0.264888   -0.77822700   -0.20892200
Se   16.19961000   15.74847000    1.23065000     -0.186275   -0.40582200    0.41537200
Se   16.09584000   16.22634000   11.00942000      0.006685    0.22379500   -0.42273100
Se   15.84463000   21.54560000    1.23288000      0.198012    0.57832800   -0.51588300
Se   16.19254000   21.80644000   11.35431000     -0.939825    0.39985400   -0.45804300
Se   21.59604000    4.34393000    1.23634000     -0.203991   -0.30048600   -0.26167500
Se   21.78087000    4.16938000   10.73355000     -0.183032    0.17872500    0.02308400
Se   21.98375000    9.93156000    1.04887000     -1.092567    0.26493000   -0.22230100
Se   21.78512000    9.90054000   10.84848000     -0.005195    0.27320100   -0.00489800
Se   21.71022000   15.98520000    1.39868000      0.120516   -0.16497600   -0.30915800
Se   21.98331000   15.77575000   11.00493000     -0.335694    0.08957500    0.02497900
Se   21.65536000   21.55118000    1.01961000      0.142342   -0.04448300    0.72635400
Se   22.11861000   21.41505000   11.19088000     -0.746061   -0.11877900   -0.50592700
Se    1.74821000    4.33936000    8.58644000     -1.418349   -1.12361300    0.87342700
Se    1.24453000    4.33412000   18.02314000     -1.357829   -1.04740600    1.36316500
Se    1.05823000   10.12222000    8.27754000      0.471729   -0.18097700   -0.09180400
Se    1.16415000   10.18089000   17.96863000      0.829139    0.08754200   -0.21829000
Se    1.84614000   15.90388000    8.28239000     -0.406881   -0.13619400    0.26800800
Se    1.50976000   15.68436000   18.45119000      0.445575    1.48006000    0.00880900
Se    1.80057000   21.69956000    8.70792000     -0.377621   -0.14070800    0.08475100
Se    1.47390000   21.59532000   18.27062000     -0.317936    0.14570500    0.15895200
Se    7.35352000    4.34983000    8.92099000      1.648298   -0.05513600   -1.01306300
Se    7.38314000    4.59572000   18.38791000      0.194875   -0.39188100   -0.60679900
Se    7.30717000   10.41006000    8.37570000      0.210548   -0.76304200   -0.33956800
Se    6.49730000   10.63498000   18.00111000      1.090899   -0.38996100   -0.07989100
Se    7.95272000   16.23397000    8.57853000     -0.412339    0.44268000    0.23734800
Se    7.27371000   16.10632000   18.20457000      0.060862   -0.34511000    0.04276500
Se    7.47200000   21.55117000    8.66294000      0.452006   -0.07241000   -1.31187100
Se    6.98387000   21.92535000   18.28550000      0.337044    0.26229900   -0.07329700
Se   12.70910000    4.25138000    8.79003000      0.828696   -1.27664100   -1.01110800
Se   13.11888000    3.95498000   18.82476000     -0.102818    1.09658700   -0.44898400
Se   13.17036000   10.03074000    8.73843000      0.358271    0.34543800   -0.50384700
Se   12.70755000   10.18354000   18.04806000      0.247798    0.33948500    0.20180700
Se   13.28888000   16.00725000    8.65724000     -0.680992   -0.22576500    0.53946100
Se   13.33073000   15.76914000   18.16281000     -1.314458   -1.08416700    1.07298700
Se   12.89626000   21.69669000    8.37152000     -0.405292   -0.09926200    0.13720400
Se   13.11181000   21.65204000   18.09787000      0.731952   -0.30050900   -0.43470000
Se   18.67959000    4.33505000    8.53812000     -0.553426   -0.51121500    0.51886400
Se   18.87778000    4.41334000   18.46951000     -0.362978    0.41856300   -0.36749700
Se   19.18379000   10.26215000    8.92044000      0.599985    0.23743500   -1.02218200
Se   18.96397000   10.28385000   18.49915000     -0.000208   -0.73933400    0.06761000
Se   18.83725000   15.98386000    8.69772000      0.212929   -1.70594900   -0.05879200
Se   18.75350000   15.67760000   18.17688000      1.507114   -0.43868200   -0.59072100
Se   18.72927000   21.57212000    8.42088000      0.809562   -1.05878800   -0.87489400
Se   19.19671000   21.66856000   18.48798000      0.121318   -0.54847700   -0.38509700
Se    4.59124000    1.45994000    8.54361000      0.012669   -0.49161000   -0.16937000
Se    4.12241000    1.57754000   18.22318000     -0.240856   -0.10932800   -0.44700700
Se    4.72846000    6.89189000    8.36578000     -0.600776    0.29566300    0.53217900
Se    4.03265000    7.23733000   18.05783000      1.061451    0.37792600    0.91713500
Se    4.04298000   13.03443000    8.60490000      0.201775   -0.64916700   -0.39844900
Se    4.13219000   13.51067000   17.86421000     -0.057720   -0.70258800    0.89144600
Se    4.85826000   18.85402000    8.46370000      0.299201    0.37313000    0.81928500
Se    4.33854000   19.20472000   18.67220000      0.044143   -0.68233800   -0.56016100
Se    9.78065000    1.26400000    8.39569000      0.914538   -0.08300900    0.32965300
Se   10.12876000    1.40923000   18.58299000     -0.272343   -0.63615600   -0.79353700
Se   10.06556000    7.47750000    9.06788000      0.646386    0.80136100    0.23169000
Se   10.14476000    7.29325000   18.51953000      0.159665   -0.29552100   -0.53263000
Se   10.64760000   13.12054000    8.34660000     -0.155485   -0.12618900    0.25903000
Se    9.99103000   13.20344000   18.22590000     -0.177222   -0.53236700    0.02129200
Se   10.43660000   19.16148000    8.72240000      0.836471    0.16030800    0.44196900
Se   10.40879000   18.56794000   18.27613000     -0.347764    0.92466100   -0.30562100
Se   16.01470000    1.11339000    8.76446000     -0.401985    0.26104000   -0.42046600
Se   16.17084000    1.28403000   18.03151000     -0.040232   -0.31398900    0.39276000
Se   15.37537000    7.09227000    8.79846000      0.018290    0.56606800   -0.23763500
Se   15.93779000    7.24266000   18.18018000     -0.396488   -0.09340100    0.29534100
Se   15.95408000   13.25080000    8.67691000      0.174700   -0.51983300   -0.41032000
Se   16.31026000   13.05078000   18.18831000     -0.416447   -0.86062900    0.63599200
Se   15.80062000   18.94537000    8.50154000      0.482340    1.01606000    0.30812700
Se   16.41890000   18.48186000   17.93942000     -0.860495    1.42705300    0.04165900
Se   21.66633000    0.86520000    8.69356000     -0.045986    2.09896200    0.08843500
Se   22.03994000    1.46319000   18.23518000     -0.106868   -1.14424000    0.35603500
Se   21.57976000    7.21104000    8.89041000     -0.104786   -0.37042300   -0.61966500
Se   21.44783000    7.19183000   18.25613000     -0.521250    0.56461800   -0.75273400
Se   22.07922000   13.33261000    8.48066000      0.177555   -0.59666200    0.41031500
Se   21.77062000   13.21400000   18.15338000      0.040143   -0.42878900    0.23487100
Se   21.78618000   18.38965000    8.31492000      0.285390    0.85433000    0.31980700
Se   21.85897000   18.51075000   18.06053000     -0.679989   -0.04198900   -0.39546000
Se    1.43994000    1.45943000    6.10155000      1.338880   -0.21159200    0.12853200
Se    1.31964000    1.55070000   16.01762000     -0.468877   -0.27327800   -0.33036000
Se    1.46457000    7.03230000    5.98108000      0.355605    0.79699700   -0.07025800
Se    1.36576000    7.25078000   15.89614000     -1.181699    0.99669900   -1.02183100
Se    1.69963000   13.10843000    5.89221000     -0.868201    1.41476300   -1.14118400
Se    1.52105000   13.00589000   15.59160000      0.111913    0.49819400   -0.18030600
Se    1.77675000   18.74594000    5.91374000      0.751669    0.47683100    0.20517300
Se    1.44823000   18.83142000   16.24807000     -0.034138    0.82673500   -1.38620900
Se    7.21777000    1.78115000    6.15025000      0.421574   -0.09926000   -0.12944900
Se    7.31902000    1.78437000   16.12753000      0.911000   -0.27192500   -0.81016500
Se    6.90463000    7.45386000    6.44169000     -0.037593    0.34971200   -0.36325000
Se    7.00436000    7.24285000   15.96655000     -1.014631    0.36312100    0.22564700
Se    7.28360000   13.61157000    6.43603000     -0.610399   -1.22217300    0.38837200
Se    7.08752000   13.59722000   15.90159000     -0.217448    0.35956900   -0.73821100
Se    7.28188000   19.08348000    6.17175000     -0.384080    0.04158100   -0.48732500
Se    7.16445000   19.01916000   15.83837000      0.067318   -0.91256000    0.43160200
Se   13.10931000    1.72822000    6.20613000     -1.005746    0.44197600   -0.35951600
Se   13.23753000    1.45784000   15.84480000     -0.528344    0.62929800   -0.34720000
Se   12.89992000    6.77695000    5.65410000      0.144759    0.40694300    0.76056000
Se   12.80334000    7.13907000   15.88696000      0.385522   -0.31111500    0.59488600
Se   13.16296000   13.55844000    6.27751000     -1.281331   -1.22654800    0.96884600
Se   13.44173000   13.05171000   15.56678000     -1.181417    0.00970000   -0.04063200
Se   13.02235000   18.90413000    6.01424000     -0.004774   -0.64169100    0.39798700
Se   13.36407000   18.85379000   15.91835000     -1.145405   -0.08128500    0.08607200
Se   18.87600000    1.36011000    6.19025000     -0.604867    0.99027300   -0.58777200
Se   19.00592000    1.38633000   16.08771000      0.274318   -0.07447400   -0.16692500
Se   18.53702000    7.31194000    6.34772000      1.303214   -0.22848000    0.20947100
Se   18.68388000    7.31381000   15.55914000     -0.733180    0.24733500   -0.03707400
Se   19.09247000   12.98478000    6.15529000     -1.225314    0.07144700   -0.00908700
Se   18.58636000   13.04679000   15.60372000      1.065192    0.26070100    0.20582500
Se   18.73774000   18.36844000    6.17983000      0.954704    0.88233800   -0.59631200
Se   19.05709000   18.88602000   16.06093000     -0.522108    0.50761100   -0.77768200
Se    4.38453000    4.49094000    5.93103000      0.778315   -0.81351900   -0.51537600
Se    4.09023000    4.21777000   15.86624000      0.622050    0.55297600   -0.14839800
Se    4.22401000   10.26029000    5.91024000      1.625843    0.15009400    0.56666900
Se    4.28629000   10.12795000   15.82306000      0.040342   -0.41773700   -0.38215700
Se    4.79753000   16.15175000    5.91691000     -0.221690    0.47947100    0.57659200
Se    4.52262000   16.21544000   16.05320000     -0.176553    0.16285600   -0.11853300
Se    4.57277000   21.97223000    5.87254000      0.377921    0.50467700    0.51050700
Se    4.36643000   21.91609000   15.60011000     -0.571231   -0.24199900    0.41021500
Se    9.89274000    5.02214000    6.37093000      1.024158   -0.61142000   -0.26441500
Se    9.84637000    4.83890000   15.25291000      1.861928    0.61390700    0.56252000
Se    9.96906000    9.95824000    6.09912000      0.237333    1.63043500    0.87506100
Se    9.67658000   10.34091000   15.78951000      0.048530    0.43743100    0.50615200
Se   10.36828000   16.00652000    6.27103000     -0.349881    1.10211700    0.21601700
Se   10.09951000   16.11628000   15.65454000      1.261985   -0.04630900   -0.14343500
Se   10.07162000   21.64099000    5.75316000      0.321310    0.17750900   -0.13042700
Se   10.04749000   21.45933000   16.40250000      0.931935    0.83391900    0.33579300
Se   15.95630000    4.30466000    6.49797000      0.066810   -0.36326800   -0.50313500
Se   15.94799000    4.60061000   16.05361000      0.537240    0.13479100    0.36179000
Se   15.73867000   10.16216000    6.24952000     -0.432588   -0.15643400   -0.41827700
Se   15.79685000   10.15687000   15.87268000      0.304317   -0.40689100    0.02426000
Se   16.35245000   16.26332000    6.08001000     -1.575321   -0.57175300   -0.18723300
Se   16.26234000   15.59382000   16.18778000     -0.171127    0.56683200   -0.32998400
Se   15.61307000   22.00959000    5.91397000      0.618136   -0.44594400   -0.27695000
Se   16.09881000   21.90371000   15.40705000     -0.356555   -0.63087800    0.11975300
Se   21.58319000    4.73945000    5.82440000      0.271093   -0.64974400    0.32799400
Se   21.82041000    4.57890000   15.61358000     -0.983316   -0.78360600    0.11629400
Se   21.70927000   10.11354000    6.04086000      0.775005    0.62618800    0.71291600
Se   21.43484000   10.39227000   15.63980000      0.268257    0.01676500    0.24220100
Se   21.96350000   15.58842000    6.22328000      0.240776   -0.29867900   -0.87624900
Se   21.90115000   15.72465000   15.48942000      0.464388   -0.02296000    0.68082200
Se   21.61047000   21.52390000    6.05537000      0.600033    0.41429800    0.25890100
Se   21.99973000   21.59335000   15.81987000     -0.296942    0.33412700    0.16820400
Se    4.38435000    1.70648000    3.48852000      0.645173    0.51362100   -0.41711400
Se    4.15674000    1.41343000   13.33712000     -0.065570    0.03993900    0.12296200
Se    4.38096000    7.38150000    3.31423000     -1.374456   -1.60782100    1.23359400
Se    4.71216000    7.37267000   13.73704000     -0.722525   -0.47982400   -0.09111400
Se    4.62327000   13.43159000    3.47645000     -0.231653   -0.32559200    0.12104500
Se    4.48963000   13.07142000   13.38915000     -0.034596    0.75285400    0.03391900
Se    4.47662000   18.96201000    3.33402000     -0.499030    0.62889800    0.78086800
Se    4.82261000   19.12014000   13.47894000     -0.748417   -0.97045800    0.38790900
Se    9.86764000    1.78453000    3.73054000      0.057658    0.51485300    0.46292600
Se   10.31659000    1.44823000   13.49859000      0.996258   -2.71970500   -0.69610900
Se    9.88787000    7.26386000    3.95162000     -0.012391    0.31191700   -0.22474300
Se    9.75500000    7.42502000   13.78166000      0.898912   -0.06249400   -1.09485500
Se    9.96426000   13.23985000    3.86726000     -0.648610   -1.99314800    0.27360900
Se   10.34919000   13.07047000   13.74592000      0.151990   -0.42666100   -0.25931300
Se    9.98770000   18.62018000    3.56234000     -0.549054    0.41939800    0.07937000
Se   10.22920000   18.91837000   13.48175000     -0.871159    0.09102100    0.95262200
Se   16.11665000    1.37576000    3.45742000      0.171525    0.46031700    0.50941700
Se   15.79477000    1.55031000   13.21801000      0.181013   -0.12877100    0.34476300
Se   16.00990000    7.09469000    3.82034000     -0.450202    0.62467600   -0.02849200
Se   15.53449000    7.39500000   13.32708000      0.261968    0.58967700   -0.14960300
Se   16.07032000   12.94662000    3.88970000      0.217231    0.71597400   -0.17439800
Se   16.70326000   13.38451000   13.26216000     -0.696800   -0.19298600    0.05679800
Se   15.59440000   18.72065000    3.42226000      0.079893   -0.38680800    0.26026000
Se   16.01021000   18.81447000   13.26973000      0.530106   -0.90713800   -0.02175100
Se   21.97207000    1.43519000    3.73248000     -0.340690    0.13505800    0.19824900
Se   21.48535000    1.23579000   13.20433000      1.001734   -0.39918600   -0.51228000
Se   21.88317000    7.48667000    3.98418000     -0.419309   -0.17178700   -0.40069000
Se   21.83890000    7.33721000   13.73237000      0.064280   -0.20722400   -0.73157900
Se   22.03101000   12.87114000    3.59271000     -0.432975   -0.57556300    0.43467900
Se   22.06449000   12.97822000   13.27157000      0.520391   -0.67548500   -0.18491700
Se   22.27603000   18.48768000    4.00648000     -0.823650    1.21411000   -0.06707300
Se   22.12877000   18.74771000   13.91354000     -0.344339   -0.66879100   -0.22246200
Se    1.23189000    4.60894000    3.89796000      0.178028   -1.07531300   -0.59018600
Se    1.09636000    4.33371000   13.30903000      0.565928    0.23652500    0.70658000
Se    1.34035000   10.23029000    3.73598000      1.005631   -0.87997600    0.13223900
Se    1.58327000    9.99682000   13.15446000     -0.324261    0.08916600   -0.20916500
Se    1.58952000   16.00118000    3.22997000      0.430327    0.06456400    0.98084100
Se    1.73940000   16.09036000   13.52482000     -0.169763    0.07263800   -0.33052300
Se    1.49972000   21.75334000    3.54012000      0.153269    0.74015800    0.26515200
Se    1.45298000   21.63892000   13.33840000      0.101447   -1.27279800   -0.19432200
Se    7.31542000    5.06441000    3.60390000     -0.149612   -1.03569800    0.05579500
Se    7.31797000    4.24105000   13.56264000     -0.262578   -0.50334200   -0.37410000
Se    7.03780000   10.42704000    3.56277000      0.469920    0.02987300    0.70828200
Se    7.17503000   10.32559000   13.04889000      0.015190   -0.30163700    0.65336700
Se    7.22786000   16.18830000    3.66314000      1.167136    0.46946800    0.56635700
Se    7.42016000   15.96790000   13.09338000      0.190912    0.18113300    0.00807600
Se    7.31707000   22.00434000    3.23678000     -0.577086   -0.26614200   -0.03412200
Se    7.52672000   22.02911000   13.47524000      0.142422    0.26811300    0.14524300
Se   13.11373000    4.29783000    3.65833000      0.620187   -0.08695500    0.48843700
Se   13.15150000    4.39152000   13.51766000      0.269831    0.15386100    0.57997900
Se   12.83740000   10.09956000    3.72729000      0.950447    0.48699500    0.45670600
Se   12.69805000   10.37164000   13.59230000      0.230409   -0.35644700    0.10058000
Se   13.01051000   15.74920000    3.89431000      0.158064    0.37877500   -0.44654200
Se   13.37349000   15.92190000   13.63670000     -0.592385   -0.02385300   -0.72426100
Se   12.73222000   21.62654000    3.59940000     -0.120313   -0.50785500   -0.70905800
Se   13.17279000   21.70187000   13.28438000      0.380294    0.91619200    0.64789600
Se   19.20300000    4.28448000    3.50778000     -0.834337    0.49966900   -0.22366000
Se   18.80443000    4.22353000   13.76225000     -0.301430   -0.76068300   -0.98566300
Se   18.56065000   10.21342000    4.14335000      0.022844    0.31338500   -0.28238200
Se   18.52742000   10.25631000   13.24440000      1.150892    0.56447100    0.74678400
Se   19.17080000   15.73215000    3.73892000     -0.666108    1.88301300   -0.39801600
Se   19.60166000   16.02008000   13.26930000     -0.746736    1.96631000   -0.61068600
Se   18.95625000   21.22441000    3.57425000      0.129200    0.41294400    0.24309800
Se   19.40560000   21.70742000   13.02225000     -0.838031    0.36515900    0.09081700
