384
23.23808000 23.23808000 19.51320000
Ge    5.63045000    5.52409000    9.92435000      0.868288   -0.32580400    1.33307600
Ge    5.72918000    6.06746000   19.40461000      0.220715   -0.86728300   -0.01609800
Ge    5.69726000   11.54330000    9.53164000     -0.210881    1.54554200    0.34853200
Ge    5.33053000   12.04812000   19.47046000      0.587490    0.63645900    0.22294200
Ge    6.12505000   17.36554000    9.80292000     -0.228301    0.98758700    0.03872900
Ge    6.17498000   17.82849000   19.42660000     -1.228535   -0.85179500   -0.23905200
Ge    6.14090000    0.07978000    9.58769000     -0.605732   -1.35236600    0.07174000
Ge    5.84094000    0.36612000   19.50903000     -1.339926   -0.43874300    0.77518700
Ge   11.66357000    5.79194000   10.05879000     -1.353309    0.39501300   -0.63413700
Ge   11.49864000    5.73697000    0.16748000      0.965207   -0.62924200    0.10167800
Ge   11.60384000   11.26690000    9.77024000     -0.234993    0.68844900    0.29822000
Ge   11.24277000   11.58001000   19.44645000      1.259489   -0.76526400    0.60040000
Ge   11.83227000   17.54908000   10.01885000      0.677647   -0.60255400   -0.37426500
Ge   11.69596000   16.98331000   19.51277000     -0.349719    0.09071600    0.31918400
Ge   11.49686000   23.14250000    9.76758000     -0.621068    0.10134500   -0.96566600
Ge   11.58760000   23.07286000   19.39958000      0.333285    0.10113500    0.75476300
Ge   17.25256000    5.82702000    9.92901000     -1.343874    0.50596300   -0.65669400
Ge   17.00462000    5.86031000   19.49143000      1.455184   -0.92996000    1.34072100
Ge   17.66042000   11.85425000    9.72173000      0.093625    0.98668300    0.39844600
Ge   17.60264000   11.56434000    0.44190000     -0.104490   -0.07651200   -0.96869000
Ge   17.43590000   17.64055000    9.74129000      0.788708    0.15327300   -0.56867000
Ge   17.39697000   17.19453000   19.38559000      0.704198   -0.64975900   -0.42993900
Ge   17.46640000   23.03255000    9.80262000      0.511586   -0.21678300   -0.15649900
Ge   17.29723000   22.88685000   19.27703000      0.297234    1.45636500    0.80572500
Ge    0.13259000    5.77093000    9.68263000     -0.803280    0.19623500    0.24521600
Ge   22.96710000    5.65341000   19.36838000     -0.840836    0.66194200   -0.38793300
Ge   23.00586000   11.55163000    9.75489000      1.349619    1.46094300    0.05753000
Ge   23.23035000   11.67838000   19.39095000      0.174732   -0.71318900    0.44938900
Ge    0.06955000   17.15040000    9.57634000     -0.387608   -0.71767000    0.89905700
Ge   23.18450000   17.25108000   19.39945000      1.018191    0.03837700    0.79733200
Ge    0.03927000   22.95585000    9.84679000      1.795235    1.34574600   -0.68434400
Ge    0.12820000   23.03267000    0.17831000      0.090195    0.38709900   -0.94106200
Ge    3.01328000    5.71342000    7.34408000     -1.120204   -1.22479800   -0.65220300
Ge    2.74279000    5.63481000   17.06268000     -0.162499    0.86240100   -0.51903100
Ge    2.66743000   11.54892000    7.15790000      0.539722    0.32883300    0.89113800
Ge    2.94615000   11.63442000   16.90713000     -0.318786   -0.65199400    0.90946300
Ge    3.25290000   17.40418000    7.32853000      0.457032    1.46191500   -0.57708600
Ge    2.92664000   17.60661000   17.47148000      0.510509   -1.44479900   -0.10276500
Ge    3.00319000    0.00457000    7.25016000      0.499544    0.10774700    0.85394000
Ge    2.86022000   23.17339000   16.90676000     -0.432941    0.36052000    2.02708800
Ge    8.36479000    6.16607000    7.74761000      0.823656    0.07386500    0.53347000
Ge    8.78109000    6.01700000   16.92726000     -1.455194    0.68477400    1.60787700
Ge    8.77601000   11.90684000    7.24610000      0.321751   -0.24458200    0.32354300
Ge    8.40619000   11.84993000   16.98474000     -0.985155    1.14947900    0.85428700
Ge    9.15314000   17.94667000    7.32123000     -0.559530   -0.53506500    0.18250500
Ge    8.71605000   17.54131000   16.90855000      0.010467    1.25903700   -0.29828600
Ge    8.62398000   23.14174000    6.94986000      0.412965    0.22518500    0.67509400
Ge    8.54134000    0.01078000   17.21792000      1.727297   -0.78140900   -0.16370500
Ge   14.16563000    5.58517000    7.31380000      0.396548   -0.05627000    0.68778500
Ge   14.19888000    5.58203000   17.35712000      0.892956    1.36324500   -0.62676300
Ge   14.40390000   11.71225000    7.36614000     -0.183628   -0.49950900    0.22388800
Ge   14.47537000   11.72245000   17.13472000     -0.116354   -0.92590800    0.14926900
Ge   14.66688000   17.54960000    7.22985000     -0.807681   -0.14787600    0.70059300
Ge   14.69444000   17.18075000   16.99634000     -1.368133   -0.96443900   -0.21643900
Ge   14.22517000   23.20442000    7.33336000      0.827075    0.22398000    0.02749100
Ge   14.57636000   23.11112000   16.90947000     -0.354737   -0.37587600   -0.39757400
Ge   20.25255000    5.80806000    7.42303000     -0.180194   -0.71816000    0.09491200
Ge   20.03452000    5.73987000   16.79190000      0.927240   -0.12433400    0.67429200
Ge   20.62003000   11.84692000    7.30222000     -0.961151   -0.20354800    1.47924600
Ge   20.21136000   11.82369000   17.11390000     -0.159796   -1.03753800   -0.68854100
Ge   20.29435000   16.96211000    7.24602000      0.467722    0.16234400    0.09862900
Ge   20.35432000   17.01277000   16.59188000      0.757295   -0.39620600    1.87880500
Ge   20.36678000   23.04668000    7.23439000     -0.691076   -1.03833100    0.23556700
Ge   20.57510000   23.14849000   17.11253000     -2.168861    1.18102300    0.19572500
Ge    2.86560000    3.09506000    4.83910000      0.405532   -1.01638900    0.11059700
Ge    2.60369000    2.82136000   14.53518000      0.885292    0.16673600    0.34952900
Ge    2.84130000    8.60439000    4.80977000      0.011049    1.29688000   -0.17479700
Ge    2.88285000    8.72608000   14.45332000     -0.207726   -1.64252800    2.01164400
Ge    3.13288000   14.66721000    4.77307000      0.725700    0.96373800   -0.40414200
Ge    3.10261000   14.55965000   14.89529000      1.105264    0.65482900   -1.15074200
Ge    3.05417000   20.35073000    4.78166000     -0.136613    0.39313600   -0.80606500
Ge    2.89198000   20.21483000   14.55087000      0.293730    0.34116900    0.92189800
Ge    8.62609000    3.37058000    4.91913000     -1.089116    1.49331100    1.02454300
Ge    8.81016000    2.88812000   14.67076000     -0.238486   -1.49389000   -1.08612600
Ge    8.35493000    8.76432000    4.95125000     -0.693390   -0.19805200    0.27860400
Ge    8.25967000    8.94002000   14.67092000     -0.651997   -1.27998000   -0.80885900
Ge    8.61633000   14.89723000    5.09752000      0.535021   -0.10678200   -0.46881000
Ge    8.82894000   14.55182000   14.45319000     -0.858537    0.12598600    0.51648200
Ge    8.62340000   20.43502000    4.53063000     -1.176325   -0.48136200   -0.19933300
Ge    8.67691000   20.40140000   14.70603000      0.525685   -0.01799400   -0.41254700
Ge   14.70305000    2.85752000    4.89791000      0.405735    1.01129000    0.08973600
Ge   14.73090000    3.01525000   14.94026000     -0.192703   -0.51068100   -1.31930000
Ge   14.45115000    8.42430000    4.85932000     -1.212668    1.72163100    0.83860700
Ge   14.19656000    8.77703000   14.82467000     -1.521503    0.33104700   -1.12474400
Ge   14.83934000   14.66783000    5.07790000     -0.626933   -1.28139300   -0.48869300
Ge   15.03388000   14.46632000   14.51125000     -1.625744   -0.64871100   -0.74783300
Ge   14.32720000   20.34823000    4.74076000      0.923788    1.55367200    0.14898200
Ge   14.76360000   20.26342000   14.51601000     -2.244137    1.78392600    0.89236000
Ge   20.43797000    2.72626000    4.89907000     -0.211592    0.54814500    0.41352300
Ge   20.36620000    2.80191000   14.65786000      0.369025   -0.71618400    0.02335900
Ge   20.11147000    8.76578000    5.16167000      0.268262   -0.54311200   -0.39226000
Ge   20.07851000    8.85692000   14.45329000      1.113203   -0.43262300    0.05744800
Ge   20.54535000   14.35443000    4.89382000     -0.280056   -1.26958500   -1.01857700
Ge   20.47278000   14.09414000   14.49707000      1.839149    1.34327600   -1.12034100
Ge   20.37484000   19.78158000    4.91138000     -0.657378   -0.04298000    0.66855400
Ge   20.49994000   20.14036000   14.68344000      0.910253    1.01359500   -0.32683600
Ge    6.00506000    3.19687000    2.52640000     -0.034016    0.97644000    0.03440100
Ge    5.92269000    2.80091000   12.35715000     -0.477233    0.45728400   -1.16207900
Ge    5.79286000    8.91672000    2.20874000     -0.662717   -0.47087600    0.01940800
Ge    5.56605000    8.86327000   12.15904000      0.322978   -0.35905300    0.15679300
Ge    5.92509000   14.73285000    2.24658000      1.823298    0.47777400    1.47714700
Ge    5.94680000   14.49408000   12.02273000      0.315749   -1.05760200    0.05502500
Ge    5.49240000   20.73727000    2.11231000      0.566886   -0.02777700    0.66566000
Ge    6.03233000   20.57599000   12.07349000      0.906020    0.48230000    0.03500700
Ge   11.52562000    2.87597000    2.40921000      0.995916    1.01828900    1.84292300
Ge   12.02292000    2.90148000   12.31421000     -2.139332    0.77637300    0.25178500
Ge   11.34327000    8.62405000    2.70933000     -0.225762   -0.18240900   -0.97870600
Ge   11.08308000    8.85459000   12.47844000     -0.421071    1.42719800   -0.00855600
Ge   11.58955000   14.26531000    2.52929000      0.353908   -0.11002000    0.52164900
Ge   11.72950000   14.54362000   12.37520000      0.286585   -0.51519600   -0.58436100
Ge   11.49119000   19.95039000    2.35715000      0.392060   -0.42897600   -0.19783900
Ge   11.53078000   20.45159000   12.33670000      0.639013   -0.75569600   -0.97602100
Ge   17.76970000    2.77971000    2.29964000     -1.668457    0.72887300    0.57888200
Ge   17.41414000    2.79442000   12.10315000      0.480838    0.18692400   -0.06676100
Ge   17.39495000    8.78011000    2.85576000     -0.964301   -1.03440600   -1.33764500
Ge   16.92294000    9.06488000   12.22629000      1.329163   -0.23573400   -0.29684900
Ge   17.70203000   14.27007000    2.62277000     -0.099309   -0.03210200   -0.13940000
Ge   17.87760000   15.07189000   12.05062000     -0.640039   -1.10610400   -0.14086000
Ge   17.23494000   20.00544000    2.40244000      0.973619    0.50995800   -0.19282500
Ge   17.69302000   20.19520000   12.36477000     -0.539756    0.67531600    0.30994900
Ge   23.15287000    3.10799000    2.40878000      0.539531   -1.41927900    0.55047500
Ge   23.09483000    2.79393000   12.08609000      0.573255   -1.22912800    0.44195900
Ge    0.11306000    8.69621000    2.39062000     -0.223611   -0.41299800    0.48457400
Ge   23.18303000    8.46822000   12.12253000      0.520980   -0.19826800    1.01217700
Ge    0.05247000   14.50122000    2.28042000      0.439796   -1.46187100    0.68945600
Ge    0.45763000   14.48650000   12.31669000     -0.358422   -0.57538200   -1.21689100
Ge   23.06248000   20.28709000    2.48558000      0.792888   -0.39756700   -0.23440100
Ge    0.36690000   19.86895000   12.23106000     -0.735367    0.16078200    0.19785500
Se    1.44162000    1.44714000    1.36995000     -0.199086    0.14890100    0.05851200
Se    1.51190000    1.38781000   11.00222000     -0.812518   -0.37985800   -0.24806400
Se    1.19453000    6.90383000    1.20151000      0.913259    0.43715500    0.38981700
Se    1.55376000    7.17129000   10.94233000     -0.036724   -0.00985900    0.15682700
Se    1.58203000   13.00420000    1.09116000     -0.657502    0.12338500   -0.06927600
Se    1.65840000   12.84517000   10.93791000     -0.761264   -0.19576300    0.03417400
Se    1.31142000   18.98407000    1.10071000     -0.188538   -0.66941000   -0.12949200
Se    1.65104000   18.35790000   10.94710000      0.104578    0.29017300   -0.19977300
Se    7.37184000    1.62405000    1.29967000      0.246775    0.03713200    0.05906600
Se    7.32265000    1.75455000   10.57870000      1.017079    0.79735900    1.40785000
Se    7.29188000    7.47022000    0.99510000     -0.262141    0.55481300    0.24647900
Se    6.89316000    7.25252000   11.04647000      0.844392   -0.12237200   -0.27533500
Se    7.15591000   13.30627000    0.95484000      0.576999   -0.91439700   -0.56795000
Se    7.36429000   12.99947000   10.66011000     -1.219250    0.25846500    0.30982000
Se    7.31242000   19.52909000    0.98941000      0.259243    0.10481000    0.35878500
Se    7.49517000   19.18083000   10.79967000     -0.321147   -0.28907600    0.28937500
Se   12.84680000    1.32999000    1.50149000      1.272688   -1.61886500   -1.31249300
Se   12.98487000    1.43480000   10.76107000      1.405867   -0.19333700   -0.01922400
Se   12.91631000    7.25618000    1.30781000     -0.260363    0.41905800    0.66749100
Se   12.55598000    7.64371000   11.20995000      2.022290   -0.17554600   -0.33355300
Se   12.96596000   12.82345000    1.19024000     -0.363668    0.01330400   -0.01824000
Se   13.04902000   12.71142000   11.15425000     -0.477244    0.79350800    0.25484400
Se   13.02981000   18.15925000    1.64186000     -0.396516    0.68769800   -0.63317300
Se   13.24838000   19.31980000   10.86105000     -0.987567   -0.49336400    0.68696600
Se   18.94918000    1.27373000    1.01776000     -0.284123   -0.96532400   -0.64264800
Se   19.06051000    1.45478000   10.71640000     -1.221220   -0.11475900    0.34752200
Se   18.54378000    7.13866000    1.46948000      0.405528    0.22161100   -0.13611600
Se   18.46800000    7.48280000   10.98210000      0.212824    0.86031700    0.63071500
Se   19.26588000   12.71775000    1.85233000     -0.348438   -0.33948700   -1.01317300
Se   19.28811000   13.39241000   11.04225000     -1.081329   -0.62652600   -0.69257400
Se   18.72789000   18.62674000    1.05510000      0.807764    0.98567000    0.74606100
Se   19.05084000   18.86658000   11.10769000      0.419870   -0.86138400   -1.09232900
Se    4.48471000    4.40611000    1.13789000     -0.192287    0.31200300   -0.25668700
Se    4.25765000    4.21172000   11.18715000     -0.300797   -0.53080800    0.57335800
Se    4.14845000   10.36983000    1.12056000     -0.267778   -0.29368500    0.20912600
Se    4.16326000   10.15793000   10.74388000     -0.339088    0.13443400    0.07278200
Se    4.67922000   16.25498000    1.27685000     -1.359282    2.28481000   -1.65209300
Se    4.52985000   16.06945000   11.02861000     -0.171152    0.36276300   -0.39199200
Se    3.94363000   22.28541000    1.15261000      1.535521   -0.11847600   -0.04359400
Se    4.64014000   22.08961000   11.02312000     -0.388990    0.28968300   -0.34849400
Se   10.11647000    4.23456000    1.32637000     -1.549631    1.06425200   -0.77973900
Se   10.19912000    4.36460000   11.20254000      0.718139   -0.65517300    0.71526600
Se    9.90832000   10.24126000    1.44239000      0.099661   -0.17365100   -0.04890400
Se    9.74736000   10.42758000   11.05650000      0.550266   -0.45336400    0.15580400
Se   10.11049000   15.63872000    1.31578000      0.139393    0.43969400   -0.45481700
Se   10.19930000   16.02809000   11.05010000      0.977871   -0.12839800    0.39856100
Se   10.19239000   21.57464000    1.17709000     -0.153058    0.13615300   -0.53699200
Se   10.09461000   21.90839000   11.17105000     -0.588025    0.05049900    0.04722900
Se   15.91523000    4.20618000    1.40307000      0.584576   -0.15171000   -0.25503100
Se   15.83275000    4.33831000   11.05740000      0.433372   -0.49296800    0.34950300
Se   15.91506000   10.18851000    1.44472000      0.473131   -0.11773500    0.24360400
Se   15.96318000   10.80346000   10.98546000     -0.670834   -0.29907900   -0.02373900
Se   16.31731000   15.71682000    1.29632000     -1.333992   -0.59479600    0.27307900
Se   16.04857000   16.26994000   11.00401000     -0.107797   -0.62000000    0.44914000
Se   15.85249000   21.61411000    1.25127000      0.137246    0.18637700   -0.30432200
Se   16.15097000   21.69794000   11.44225000      0.091293    0.68197400   -1.05337600
Se   21.56579000    4.26071000    1.19624000     -0.477785    0.27963300   -0.49094600
Se   21.88508000    4.17306000   10.71288000     -0.953088    0.68938500   -0.43094900
Se   21.92993000   10.01697000    1.17167000     -0.892238    0.83269400   -0.92904400
Se   21.78442000    9.85812000   10.86178000     -1.131589    0.17060100   -0.01393800
Se   21.78895000   15.99894000    1.37785000     -0.786581    0.17122600   -0.47682700
Se   21.97173000   15.57856000   11.12384000      0.834885    1.22454300   -1.16839000
Se   21.69750000   21.50220000    0.96083000     -0.504219    0.36077500    0.45517100
Se   22.18760000   21.38944000   11.03273000     -1.687041   -1.05835500    0.47373400
Se    1.69817000    4.33712000    8.74851000      0.016893   -0.85655300   -0.61829300
Se    1.22908000    4.26417000   18.20190000      0.016454   -0.68588800    0.37458000
Se    1.05543000   10.14227000    8.26960000      0.412322    0.09926100   -0.02836200
Se    1.17832000   10.21726000   17.96822000      0.804935    0.12318900   -0.21917000
Se    1.71621000   15.95305000    8.28532000     -0.551088   -0.82764100    0.47316900
Se    1.52093000   15.70659000   18.43678000      0.455308    1.17304400   -0.12177600
Se    1.72791000   21.72481000    8.67426000      0.115622   -0.02395500   -0.52396500
Se    1.48675000   21.59660000   18.24191000      0.046147    0.62688500    0.06241700
Se    7.26599000    4.26592000    8.83128000      0.798627    0.25932800   -0.37024100
Se    7.41262000    4.58785000   18.46544000      0.114179    0.15100300   -0.73146500
Se    7.33579000   10.33548000    8.43255000      0.377858   -0.50794500   -0.55566300
Se    6.49464000   10.69498000   18.00322000      1.377748   -1.07792500   -0.48542000
Se    7.91556000   16.32207000    8.71707000     -0.001731   -0.50011200   -0.32667100
Se    7.29291000   16.12253000   18.04119000     -0.594625   -0.01497900    0.96139000
Se    7.53202000   21.67940000    8.55903000     -0.347173    0.19156100   -0.54482900
Se    6.97817000   21.96580000   18.32022000     -0.040187   -0.90427000   -0.09716600
Se   12.77713000    4.14714000    8.80703000      0.473575    0.54752300   -0.83027700
Se   13.17783000    4.04932000   18.81844000     -0.545707    0.59343000   -0.21227500
Se   13.27899000    9.99299000    8.63837000     -0.390275   -0.02633800   -0.10815800
Se   12.68304000   10.20080000   18.01757000      0.376898    0.57399900    0.27267200
Se   13.22415000   16.00079000    8.59390000      0.057060    0.93250000   -0.08957200
Se   13.24312000   15.64868000   18.28455000      0.354154    0.14823200   -0.18933000
Se   12.69357000   21.68979000    8.22813000     -0.111952   -0.17300000    0.53311000
Se   13.04783000   21.66072000   18.03427000      0.010768   -0.11739900    0.34995000
Se   18.55798000    4.38871000    8.66100000      1.105978   -0.13719400   -0.64469300
Se   18.73379000    4.39499000   18.41581000     -0.098656    0.42451900   -0.26616200
Se   19.10148000   10.26290000    8.79161000      0.536889    0.67313500   -0.76744800
Se   19.03373000   10.24748000   18.43626000     -0.417069   -0.16928800    0.29138100
Se   18.77788000   15.84436000    8.61679000     -0.524294   -0.01632200    0.69422200
Se   18.63348000   15.72096000   17.96610000      1.449822   -0.10544000   -0.08591900
Se   18.82566000   21.56932000    8.27153000     -0.703161    0.07095100    0.74220000
Se   19.06470000   21.66321000   18.35147000      0.200266   -0.57833200   -0.24379500
Se    4.54730000    1.44626000    8.58767000     -0.922437   -0.04724900   -0.98411900
Se    4.25547000    1.52491000   18.30015000     -0.810055    0.56096300   -0.90933500
Se    4.62568000    6.80995000    8.39437000      0.232764    3.39071500    0.05759100
Se    4.16381000    7.24267000   18.08083000      0.037951    0.34425400    0.24131300
Se    4.08022000   13.11846000    8.45902000      0.395982   -1.15711700    0.02354800
Se    4.12024000   13.44564000   17.96882000     -0.205926   -0.17067800    0.48354500
Se    4.76268000   18.92132000    8.55657000     -0.568207   -0.38941300   -0.12315600
Se    4.27500000   19.24740000   18.53843000      0.636607   -0.93627600    0.17768100
Se   10.00787000    1.27762000    8.41375000      0.192261    0.14220000   -0.07179100
Se    9.99145000    1.36148000   18.54139000      0.220376    0.18947600   -0.11394600
Se   10.17831000    7.49189000    8.96035000     -0.484843   -1.10016700   -0.47865900
Se   10.16752000    7.32183000   18.69476000     -0.579831    0.16175400   -1.48224200
Se   10.57229000   13.06859000    8.50597000     -0.439816   -0.48357000   -0.28915300
Se   10.00665000   13.17128000   18.31629000     -0.804963    0.15739500   -0.63543200
Se   10.48285000   19.14987000    8.90271000     -0.207315    0.37089700   -0.62855600
Se   10.59636000   18.65562000   18.19060000     -0.685625   -0.05459100   -0.18023600
Se   15.78039000    1.17446000    8.79772000     -0.074508    0.01653600   -0.23753300
Se   16.05625000    1.32168000   17.92214000      0.681558   -0.07102000    1.16286200
Se   15.36714000    7.09547000    8.82643000      0.336044   -0.04602200   -0.18187100
Se   15.86526000    7.35968000   18.24509000     -1.214090    0.00714000   -0.64524400
Se   15.71725000   13.16653000    8.69832000      1.177335    0.02716100    0.10779300
Se   16.21100000   12.96762000   18.29204000      0.120654   -0.17358200    0.50543600
Se   15.93848000   19.12926000    8.56482000      0.102914   -0.07800000   -0.15989400
Se   16.30923000   18.52726000   17.84018000     -0.017907    1.83942700    0.72294800
Se   21.62955000    1.01922000    8.72298000      0.708154    1.02317500    0.47962900
Se   22.06726000    1.32011000   18.21162000      0.227662    0.07227500    0.73034600
Se   21.60888000    7.21435000    8.80988000      0.266831   -0.09663900   -0.15283200
Se   21.47640000    7.16176000   18.19219000      0.150382   -0.18197800   -0.10097100
Se   22.03645000   13.41910000    8.45602000     -0.074041   -1.04997300    0.27417700
Se   21.78781000   13.12916000   18.21774000      0.150284    1.05865900    0.21995500
Se   21.77861000   18.47900000    8.34488000      0.026114    0.84070900    0.11153300
Se   21.81069000   18.58118000   18.14394000     -0.970667   -0.25754000   -0.96775200
Se    1.53831000    1.38613000    6.07378000     -0.298106    0.70470600   -0.36147800
Se    1.34266000    1.50459000   16.10805000     -0.749355    0.35790700   -0.80439100
Se    1.59446000    6.95594000    5.95593000     -1.074863    0.50735700    0.28811800
Se    1.33584000    7.24625000   15.94315000      0.594259    0.34750000   -0.58621700
Se    1.62168000   13.25179000    5.90770000     -0.832242    0.22225700   -0.26036000
Se    1.58561000   13.02847000   15.69984000     -1.410007    0.15310700   -0.45280600
Se    1.70507000   18.82590000    5.86304000      0.138688   -0.85173200    1.08083100
Se    1.47108000   18.93005000   16.25947000     -0.453524    0.69110300   -1.30421400
Se    7.22793000    1.75349000    6.22181000      0.009023    0.13810000   -0.42552200
Se    7.40457000    1.68154000   16.13406000     -1.160709    0.50301800   -0.55318000
Se    6.88055000    7.46345000    6.41775000     -0.263582    0.54174100   -0.63647200
Se    6.91136000    7.34879000   15.84418000      0.706469   -0.25014300    0.58985300
Se    7.19723000   13.54804000    6.46343000      0.038591   -0.33471500   -0.12430200
Se    7.18950000   13.70179000   15.94251000      0.145682   -0.76599700    0.06203200
Se    7.35270000   19.12983000    6.19052000      0.279568   -0.13435000   -0.20829100
Se    7.02399000   19.08920000   15.67819000      0.637643   -1.05362800    0.87850700
Se   13.10917000    1.68114000    6.15060000     -1.034405   -0.00928800    0.14222200
Se   13.16198000    1.34619000   15.76884000     -0.289436    0.73433700   -0.19562400
Se   12.87554000    6.85707000    5.65021000     -0.119338   -0.22335400    1.01829900
Se   12.85577000    7.14502000   15.91305000     -0.406105   -0.62642800    0.40864500
Se   13.11495000   13.41124000    6.30820000      0.291155    0.05120800   -0.18598900
Se   13.35751000   13.10117000   15.56910000     -0.075007   -0.18824000    0.10740400
Se   13.03344000   18.92599000    5.98636000     -0.326933   -0.97205700    0.90936300
Se   13.33782000   18.73581000   15.75846000     -0.296150    0.24210700   -0.09719400
Se   18.90630000    1.30831000    6.27224000     -0.034874    1.07795800   -0.85736600
Se   18.86964000    1.47521000   16.03754000      1.233813   -0.36857200    0.10239100
Se   18.67637000    7.21830000    6.34351000      0.186505    0.36251700   -0.17990200
Se   18.70223000    7.37484000   15.60655000     -0.718407   -0.63582500    0.48786500
Se   18.99118000   13.04813000    6.16368000     -0.523246    0.20297300   -0.35544900
Se   18.76334000   13.01522000   15.52010000     -0.674490   -0.39991700    1.25812600
Se   18.68282000   18.20311000    6.07427000      1.323531    1.31607800   -0.58323200
Se   19.12956000   18.90575000   16.07724000     -1.392966    0.36373000   -0.31142100
Se    4.41931000    4.52369000    5.90512000      0.362425   -0.69680000   -0.20349900
Se    4.14344000    4.17442000   15.87178000      0.206199   -0.03096000   -0.46590400
Se    4.20620000   10.28427000    5.92360000      0.309484   -0.52576000   -0.00935000
Se    4.31311000   10.07545000   15.80394000      0.298340    0.06346400   -0.12008900
Se    4.86430000   16.15376000    6.10190000     -1.200223   -0.49550400   -0.62199700
Se    4.45679000   16.29779000   15.94783000     -0.452042    0.03486500    0.23251000
Se    4.42886000   22.00998000    5.77843000      0.342759   -0.11456000    0.13647300
Se    4.23991000   21.96646000   15.62331000      1.169526   -1.01220300   -0.91004100
Se    9.83675000    5.00403000    6.26251000      0.559623   -0.76908400   -0.05151900
Se    9.89320000    4.75603000   15.32311000      2.346849    0.84950200    0.61888100
Se    9.93284000   10.05088000    6.06992000      0.300531    1.04029300    0.49505800
Se    9.67372000   10.31466000   15.81072000      1.603785    0.18998300    0.40308000
Se   10.38192000   16.09418000    6.31527000     -0.332680    0.24551800   -0.16140500
Se   10.05020000   16.22880000   15.50550000      1.182073    0.23544100    0.15875900
Se   10.11289000   21.71860000    5.69925000      0.838532    1.03289400    0.60465900
Se   10.10712000   21.51908000   16.26410000     -0.444908    0.62008100   -0.08334700
Se   16.02107000    4.25955000    6.56765000     -0.601502   -0.46545900   -0.99407800
Se   16.03190000    4.66965000   16.05662000     -0.263621   -0.36428800    0.12670500
Se   15.72061000   10.14476000    6.12384000      0.213568   -0.17667800   -0.15874300
Se   15.72241000    9.95072000   15.99393000      1.167206    0.99447300    0.90458600
Se   16.31551000   16.24734000    6.05805000     -0.213875   -0.15352800    0.04616200
Se   16.19145000   15.55180000   16.08768000      0.929799    0.98584900    0.51413000
Se   15.75724000   22.08584000    5.90296000     -0.275602   -1.10917400   -0.43614000
Se   16.08066000   21.96452000   15.44951000      0.309604   -0.10881800    0.49224200
Se   21.75269000    4.65293000    5.89561000     -0.464207   -0.53141100    0.48507400
Se   21.90929000    4.44540000   15.56910000     -1.313640    0.08371800    0.41451200
Se   21.70969000   10.16776000    6.20357000      0.985875   -0.61854100   -0.40049000
Se   21.52123000   10.33412000   15.62745000      0.202294    0.19893400    0.48407700
Se   21.99194000   15.52478000    6.23450000      0.265392    0.99811700    0.36670500
Se   22.09016000   15.70168000   15.59274000     -1.002203   -0.35224900    0.08626200
Se   21.69218000   21.52746000    6.08970000      0.445475   -0.71138300   -0.60345900
Se   21.87049000   21.75964000   15.92707000      0.932637   -1.12670300   -0.99482500
Se    4.32466000    1.74625000    3.41965000     -0.191252    0.01641100    0.36759300
Se    4.18186000    1.46529000   13.22007000     -0.349600   -0.63297100    0.49007600
Se    4.20110000    7.34513000    3.36330000      0.583792    0.13825000   -0.49991500
Se    4.72184000    7.32285000   13.87136000     -0.500354    0.19648100   -0.85423400
Se    4.58855000   13.33435000    3.39794000     -1.067418   -1.48782700    0.95932800
Se    4.54747000   13.12618000   13.42306000     -0.307064    0.26922200    0.27160200
Se    4.52772000   18.98320000    3.46150000      0.066745    0.44089300    0.03804400
Se    4.74491000   19.15429000   13.36761000     -0.892082   -1.19285200    0.60156400
Se    9.83229000    1.88451000    3.70732000      0.408821   -1.68482200   -0.05616300
Se   10.34328000    1.43373000   13.37413000     -0.248071    0.36906500    0.51355000
Se    9.86602000    7.18073000    4.07081000      0.647505   -0.00319700   -0.83359800
Se    9.77753000    7.31031000   13.65794000     -0.224572    0.55982900    0.11939300
Se    9.92297000   13.13996000    3.89300000     -0.132094    0.24286000    0.16504400
Se   10.37598000   13.01584000   13.75514000      0.549253   -0.27394000   -0.59622100
Se    9.91772000   18.67968000    3.62390000      0.188000   -0.05572900   -0.29508300
Se   10.14608000   18.87866000   13.34858000     -0.369682    0.14067100    0.75434800
Se   15.95998000    1.36909000    3.52571000      0.836761    0.52454800   -0.17572800
Se   15.81812000    1.48101000   13.24054000     -0.323160    0.09529200    0.81755900
Se   15.95283000    7.08104000    3.85645000      0.939698   -0.16362000   -0.69900900
Se   15.50853000    7.56836000   13.28929000      0.025609   -1.00414000   -0.02990700
Se   16.18195000   12.94913000    3.87305000     -0.564367    0.56671900    0.34817700
Se   16.65685000   13.32521000   13.26547000     -0.206515    0.01448500   -0.39962600
Se   15.60609000   18.76299000    3.54947000      0.429384   -0.52894700    0.06269500
Se   16.06309000   18.85757000   13.47017000      1.659423   -2.28977300   -0.98817300
Se   22.00059000    1.39907000    3.74296000      0.114401   -0.03325700   -0.19186600
Se   21.58867000    1.23557000   13.20637000      0.264090    0.65996200    0.23652400
Se   21.91325000    7.50262000    3.93949000     -0.831003   -0.32332300    0.05441100
Se   21.82649000    7.19570000   13.74263000     -0.079015    0.83825100   -0.87777000
Se   22.18460000   12.79655000    3.73049000     -0.724820    1.19491100   -0.20520700
Se   22.19398000   12.90835000   13.17769000     -0.694212   -0.73318900    0.81711100
Se   22.25460000   18.61005000    4.00005000     -0.541408   -0.02312300   -0.15847800
Se   22.19022000   18.66548000   13.87432000      0.178338   -0.04303000   -0.72660800
Se    1.21764000    4.48586000    3.90710000     -0.272063    0.35564300   -0.53849700
Se    1.18234000    4.32175000   13.36151000      0.000832   -0.01226000    0.23532100
Se    1.24572000   10.19169000    3.79762000      1.031549   -0.34266800    0.11836000
Se    1.59667000    9.99387000   13.13641000     -0.965973    0.99262300   -0.95665900
Se    1.61964000   15.98926000    3.19850000      0.750966    0.22488300    1.11881700
Se    1.72782000   15.98523000   13.49967000      0.489579    0.50872900    0.53092700
Se    1.47475000   21.73980000    3.42051000      0.192386   -0.05173200    0.39998600
Se    1.44573000   21.63929000   13.32187000      0.440443   -0.08679700    0.16172000
Se    7.27941000    5.05934000    3.64163000     -0.199201   -1.98411700   -0.01053000
Se    7.36340000    4.33567000   13.38465000     -0.150765   -0.33981000    0.21544600
Se    7.04499000   10.31441000    3.61343000      0.286131    0.13433800    0.32541200
Se    7.18528000   10.38425000   13.11689000     -0.289442   -0.05300400   -0.03812000
Se    7.15277000   16.28692000    3.76083000      0.376356   -0.51081300   -0.17513500
Se    7.51397000   15.89035000   13.05476000     -0.007122    0.77674300   -0.08860500
Se    7.43458000   22.05584000    3.18256000     -0.671625   -0.55142000    0.17651200
Se    7.46052000   22.00301000   13.44775000     -0.072830    0.15144800   -0.24135900
Se   13.12030000    4.37037000    3.67399000     -0.289609   -0.91819900   -0.14298700
Se   13.15086000    4.46644000   13.72743000      0.130190   -0.26072000   -0.11835300
Se   12.82191000   10.01845000    3.85447000      0.881529   -0.05095600    0.24622800
Se   12.69398000   10.43394000   13.51209000      0.144320   -1.27969900    0.38064300
Se   13.08538000   15.76532000    3.82823000      0.081511    0.10584600   -0.29619600
Se   13.31048000   15.93246000   13.64650000     -0.248560   -0.08265800   -0.64738600
Se   12.77990000   21.60837000    3.46561000      0.277670    0.16552900    0.14663300
Se   13.21329000   21.76220000   13.17083000      0.955254    0.43199200    1.31278500
Se   19.25848000    4.28165000    3.48508000     -0.600761   -0.50275600    0.24916600
Se   18.81371000    4.17792000   13.60045000     -0.769773    0.53272300   -0.75503200
Se   18.57011000   10.28099000    4.14539000      0.500519    0.19761800    0.24875400
Se   18.61782000   10.35763000   13.44956000     -0.446490   -0.16379200   -0.61557700
Se   19.10273000   15.80696000    3.66367000      0.474882    0.62871100    0.33576700
Se   19.57605000   16.03764000   13.27632000      0.295763    0.56876500    0.82742300
Se   19.00741000   21.24915000    3.64412000     -0.621778    0.07582100   -0.46533400
Se   19.38184000   21.63786000   13.16489000      0.037003   -0.06576600    0.69802900
