384
23.23808000 23.23808000 19.51320000
Ge    5.61404000    5.57102000    9.89883000      1.204421   -0.90683300    1.68020800
Ge    5.75568000    6.10544000   19.41724000     -0.066682   -1.81561900    0.12969800
Ge    5.66105000   11.55480000    9.51315000      0.431718    0.78859400    0.42087400
Ge    5.32004000   12.03365000   19.48902000      1.334587    0.92466600   -0.11033600
Ge    6.09019000   17.40125000    9.77403000     -0.172981    0.92627200    0.40112900
Ge    6.19491000   17.87804000   19.40926000     -1.188150   -1.08473100   -0.33547400
Ge    6.10753000    0.10666000    9.60567000     -0.275578   -1.65260200   -0.61192800
Ge    5.85201000    0.37304000    0.03382000     -1.412501   -0.83326900    0.56176000
Ge   11.63872000    5.79477000   10.12257000     -0.491817    0.30719200   -1.97537600
Ge   11.50844000    5.74020000    0.16226000      0.926502   -0.46160600    0.16072500
Ge   11.61774000   11.25893000    9.78203000     -0.021127    0.49243000    0.30439100
Ge   11.24758000   11.56161000   19.43894000      1.622753   -0.25403500    0.55328100
Ge   11.83160000   17.55404000   10.00031000      0.679029   -0.81679000   -0.20331200
Ge   11.72793000   16.98710000    0.02337000     -0.475082    0.49598300    0.29745600
Ge   11.51561000   23.17709000    9.77416000     -0.612695   -0.48905500   -0.54228600
Ge   11.57528000   23.12213000   19.44429000      0.516784   -0.30886500    0.40514900
Ge   17.25545000    5.83271000    9.97784000     -1.317863    0.87653300   -0.79966200
Ge   16.99143000    5.85012000   19.46641000      1.113929   -0.39185400    1.12151400
Ge   17.62337000   11.87777000    9.72831000      0.276898    0.65871700    0.17531600
Ge   17.60877000   11.54992000    0.42391000      0.082417   -0.08326200   -0.73629400
Ge   17.44640000   17.66120000    9.80125000      0.265458   -0.34356300   -1.23162500
Ge   17.35328000   17.17166000   19.35036000      0.859758   -0.26698200   -0.43094900
Ge   17.41839000   23.07875000    9.77647000      0.718431   -0.42078100    0.02425500
Ge   17.28683000   22.92334000   19.27455000      0.493155    1.18247200    0.76552700
Ge    0.14994000    5.78946000    9.68940000     -1.103572    0.14384200    0.17680300
Ge   22.97925000    5.64147000   19.38416000     -0.919761    0.78761300   -0.14415200
Ge   22.96115000   11.56787000    9.74266000      1.662350    1.03415000    0.16581900
Ge    0.01004000   11.68951000   19.41026000      0.149213   -0.89919500    0.45309600
Ge    0.07371000   17.17387000    9.59598000     -0.962433   -0.75220200    0.80964900
Ge   23.21224000   17.24625000   19.38411000      0.345100    0.64567800    0.70968900
Ge    0.08843000   22.96217000    9.82999000      0.614947    1.32878100   -0.43984100
Ge    0.15527000   23.03565000    0.16357000     -0.140396   -0.02084100   -0.54290200
Ge    3.00887000    5.70979000    7.35907000     -0.949452   -1.67197700   -0.64292700
Ge    2.78595000    5.62083000   17.06900000     -0.771914    0.70908100   -0.12062700
Ge    2.68085000   11.56994000    7.19052000      0.246719    0.31406100    0.20162000
Ge    2.95394000   11.62437000   16.90912000     -0.240502   -0.59563100    0.77055900
Ge    3.22853000   17.39559000    7.30996000      0.332973    1.34177300   -0.18872200
Ge    2.91342000   17.55840000   17.48544000      0.357565   -0.61857600   -0.64206800
Ge    2.97760000    0.02924000    7.21638000      1.194930   -0.61895100    1.22403100
Ge    2.88734000   23.20821000   16.93318000     -0.503156    0.10340900    1.91735400
Ge    8.30764000    6.10643000    7.73210000      1.387487    0.57871000    0.09152100
Ge    8.76360000    6.02725000   16.96121000     -1.152694    0.64779800    1.04277300
Ge    8.78461000   11.88415000    7.19723000     -0.085734    0.30046600    0.83117300
Ge    8.42740000   11.83908000   17.01430000     -0.909949    1.08608900    0.58160100
Ge    9.16910000   17.89447000    7.34632000     -0.783164    0.49050200    0.38493900
Ge    8.69320000   17.60712000   16.89531000      0.276775    0.69893000   -0.42818400
Ge    8.63384000   23.18232000    6.97186000      0.796756    0.06209600    0.43685200
Ge    8.54149000   23.22161000   17.24972000      1.680646   -0.94200800   -0.92383500
Ge   14.18427000    5.58936000    7.29258000      0.278477   -0.20127000    0.94113700
Ge   14.19710000    5.60352000   17.31189000      1.228022    1.23160500   -0.33924000
Ge   14.41817000   11.66418000    7.36122000     -0.418015   -0.24195700   -0.11059000
Ge   14.48658000   11.72565000   17.15111000     -0.375993   -0.96533000   -0.19928800
Ge   14.69985000   17.59035000    7.23095000     -0.878941   -0.08965800    0.86879900
Ge   14.69713000   17.15484000   16.98567000     -1.619960   -0.75859400   -0.15010200
Ge   14.25043000   23.16082000    7.32902000      0.158764    0.37251500   -0.19422400
Ge   14.55002000   23.08719000   16.92965000     -0.314312    0.20083700   -0.49325500
Ge   20.26646000    5.83222000    7.40867000      0.114343   -1.54978200    0.30415800
Ge   20.07654000    5.71604000   16.83341000      0.351995    0.08169400    0.19314100
Ge   20.59179000   11.84759000    7.30337000     -1.185652   -0.01410000    1.27826200
Ge   20.24667000   11.81000000   17.10348000     -0.116867   -1.20642000   -0.49987600
Ge   20.28842000   16.98910000    7.27983000      0.448340   -0.26399400    0.24790300
Ge   20.36937000   17.00532000   16.60318000      0.668950   -0.01551200    1.64676900
Ge   20.39973000   22.99349000    7.23637000     -0.536307    0.34507500    0.58835100
Ge   20.51898000   23.19711000   17.13237000     -2.055299    0.48807800   -0.14194300
Ge    2.84814000    3.09995000    4.87448000      0.804916   -0.94345400   -0.10393700
Ge    2.61558000    2.78869000   14.52782000      0.765151    0.25913400    0.61481000
Ge    2.77256000    8.61685000    4.78138000      0.971226    1.06293200    0.09762100
Ge    2.90462000    8.72773000   14.47393000     -1.066519   -1.22233400    1.32410300
Ge    3.12470000   14.61423000    4.74365000      0.658551    1.22723100   -0.20420600
Ge    3.11586000   14.53815000   14.89781000      0.824520    0.95231400   -1.15677800
Ge    3.00148000   20.28295000    4.76816000      0.489196    1.65477000   -0.98539700
Ge    2.89060000   20.22534000   14.56491000      0.314869    0.06682300    0.87058000
Ge    8.58468000    3.34254000    4.92227000     -0.786020    1.54516600    0.93355100
Ge    8.72108000    2.88285000   14.69121000      1.279332   -0.33733200   -1.51965600
Ge    8.35386000    8.71692000    4.94610000     -0.408439    0.41155500    0.44541300
Ge    8.26372000    8.94487000   14.62063000     -0.063287   -1.25231900   -0.18780500
Ge    8.59721000   14.94508000    5.07810000      0.644602   -0.84972900   -0.04099000
Ge    8.81698000   14.54044000   14.45548000      0.047109    0.17825800    0.39559200
Ge    8.64361000   20.44544000    4.53903000     -1.142459   -0.15722000    0.13072700
Ge    8.69054000   20.36204000   14.63395000      0.254489    0.31692100    0.00814600
Ge   14.68089000    2.89154000    4.87573000      0.294762    0.66187600    0.51825400
Ge   14.71237000    2.97990000   14.94669000      0.064270   -0.18947300   -0.98039000
Ge   14.44904000    8.41416000    4.90249000     -1.066578    1.54374500    0.45982900
Ge   14.17173000    8.77430000   14.81506000     -1.171013    0.73627700   -0.76370700
Ge   14.86847000   14.66651000    5.05801000     -1.326747   -1.40095300   -0.30640600
Ge   15.01381000   14.44597000   14.47601000     -1.724165   -0.31969300   -0.27139300
Ge   14.33545000   20.39772000    4.77023000      0.795664    0.85588000    0.12446700
Ge   14.77278000   20.34566000   14.56282000     -1.740346   -0.35827400   -0.31268800
Ge   20.47433000    2.70152000    4.91803000     -0.581369    0.85648500    0.31368800
Ge   20.34824000    2.84392000   14.66764000      0.307910   -1.15793000   -0.41652100
Ge   20.11851000    8.75185000    5.16158000      0.532277    0.08295200   -0.40134500
Ge   20.09737000    8.85167000   14.47015000      0.899568   -0.52593900    0.09926900
Ge   20.57299000   14.34866000    4.90851000     -0.793598   -0.92560800   -1.19202800
Ge   20.51054000   14.06261000   14.52531000      2.167377    1.98030700   -1.61628800
Ge   20.35186000   19.75131000    4.89563000     -0.620102    0.39972100    0.80623400
Ge   20.56053000   20.09630000   14.72510000      0.795334    1.30073300   -0.63393600
Ge    5.98683000    3.16751000    2.56760000      0.104121    1.12083400   -0.48146300
Ge    5.87688000    2.85047000   12.35776000      0.048797    0.31331400   -1.44290100
Ge    5.82312000    8.90400000    2.12903000     -0.970253   -0.20440100    0.81084000
Ge    5.56407000    8.87551000   12.18074000      0.191291   -0.57395500    0.07298700
Ge    5.91270000   14.69601000    2.32178000      1.186382    1.48123500    0.34023500
Ge    5.92548000   14.49520000   12.03080000      0.851983   -0.79317100   -0.03001600
Ge    5.54963000   20.74552000    2.13956000      0.373154   -0.11756800    0.77641500
Ge    6.00570000   20.60327000   12.03660000      0.593481    0.39584000    0.10627700
Ge   11.54022000    2.85427000    2.42968000      0.568382    1.48838400    1.11119000
Ge   11.99490000    2.97868000   12.27366000     -1.844479    0.16832500    0.61870500
Ge   11.34435000    8.57823000    2.67693000     -0.055042    0.33050200   -0.47085500
Ge   11.08236000    8.82987000   12.48997000      0.099449    1.28587800   -0.13918500
Ge   11.57354000   14.30945000    2.48859000      0.326079   -0.63264300    1.10232200
Ge   11.72339000   14.56960000   12.35622000      0.139311   -0.78981900   -0.62286200
Ge   11.50468000   19.96021000    2.38785000      0.438271   -0.91661700   -0.31844100
Ge   11.54979000   20.45124000   12.31454000      0.978438   -0.94382300   -0.55299100
Ge   17.72059000    2.78261000    2.32096000     -1.280576    0.46752300    0.46974400
Ge   17.39492000    2.79469000   12.11293000      0.391544   -0.06251300   -0.42044500
Ge   17.38799000    8.75355000    2.85757000     -0.837080   -0.41123200   -1.23410400
Ge   16.92321000    9.07222000   12.23939000      1.618631    0.27481400   -0.13477500
Ge   17.70306000   14.22875000    2.62515000      0.532794    0.83024300   -0.02074100
Ge   17.87653000   15.03780000   12.04949000     -0.575654   -0.56253400    0.08301100
Ge   17.26352000   20.00466000    2.39265000      0.555527    0.42222800   -0.12616400
Ge   17.71311000   20.19578000   12.41901000     -0.726425    0.44585700   -0.05190800
Ge   23.15624000    3.09720000    2.42253000     -0.022168   -1.37197900    0.20254400
Ge   23.11122000    2.76983000   12.07397000      0.543948   -0.74307800    0.35191600
Ge    0.08112000    8.70191000    2.40821000     -0.304009   -0.42449700    0.02202700
Ge   23.17861000    8.47575000   12.15471000      0.336132   -0.10510200    0.78766200
Ge    0.07847000   14.49378000    2.25988000      0.327551   -1.12859900    0.88584500
Ge    0.49049000   14.43402000   12.29965000     -0.192198   -0.43057200   -1.03447300
Ge   23.04207000   20.26619000    2.45889000      0.926810    0.02536600   -0.22413700
Ge    0.40651000   19.93693000   12.22907000     -1.410453   -0.82846900   -0.16768400
Se    1.41574000    1.46522000    1.37966000      0.076726   -0.01180100   -0.01037200
Se    1.51616000    1.36940000   10.96541000     -0.509217   -0.17623400    0.01248600
Se    1.21995000    6.91594000    1.20222000      0.557978    0.55741900    0.41048200
Se    1.53021000    7.17735000   10.95318000      0.239322    0.11837300    0.25285200
Se    1.60714000   13.02176000    1.08673000     -0.557324    0.02220500   -0.11560000
Se    1.69861000   12.85506000   10.91961000     -0.867459   -0.38987600   -0.07231400
Se    1.28817000   18.97405000    1.09003000      0.087569   -0.67787700   -0.12698600
Se    1.62693000   18.32736000   10.98019000      0.436004    0.44759700   -0.02936500
Se    7.38655000    1.59533000    1.29878000      0.236166    0.45597900    0.37978700
Se    7.34560000    1.72903000   10.53267000      0.884476    1.25950600    1.84041500
Se    7.31189000    7.43943000    1.02364000      0.267058    0.56517200    0.11674200
Se    6.92309000    7.28212000   11.04348000      0.560238   -0.16580500   -0.34587100
Se    7.16025000   13.28657000    0.98307000      0.340632   -0.72128800   -0.37344200
Se    7.37885000   13.01650000   10.67248000     -1.574649    0.03799800    0.19093900
Se    7.33697000   19.57160000    0.98856000      0.288763   -0.06532500    0.28803300
Se    7.50328000   19.20301000   10.76283000     -0.638645   -0.23449100    0.34222800
Se   12.90501000    1.30813000    1.50147000      0.923219   -1.14268700   -1.11781200
Se   13.03080000    1.43128000   10.76668000      1.009222    0.10765800    0.29874900
Se   12.90574000    7.30482000    1.31350000     -0.088054    0.14098500    0.44603200
Se   12.57399000    7.60504000   11.22469000      2.011273    0.20647100   -0.07080400
Se   12.97190000   12.84467000    1.22285000     -0.484605   -0.13201100   -0.24138200
Se   13.06973000   12.72382000   11.11523000     -0.551554    0.85217500    0.37310500
Se   13.07919000   18.19876000    1.70384000     -0.705447    0.47242200   -0.87573800
Se   13.26266000   19.30721000   10.85521000     -0.945678   -0.46209400    0.73244500
Se   18.91503000    1.22905000    1.05119000     -0.278167   -0.71154400   -0.49348500
Se   19.06330000    1.44333000   10.70912000     -1.353094   -0.04402000    0.32852300
Se   18.52898000    7.14932000    1.43824000      0.429082    0.19592100   -0.15927300
Se   18.43502000    7.53822000   11.03136000      0.476534    0.51437600    0.41538000
Se   19.29316000   12.74518000    1.85811000     -0.265605   -0.60672900   -1.22347600
Se   19.27664000   13.36785000   11.07009000     -0.884345   -0.69845500   -0.78807800
Se   18.72178000   18.62067000    1.02426000      0.656023    0.78695900    0.50576900
Se   19.02362000   18.82804000   11.09269000      0.866341   -0.34790300   -0.46897100
Se    4.45243000    4.40056000    1.18070000      0.374801    0.53728100   -0.44263100
Se    4.24133000    4.22588000   11.19651000     -0.165717   -0.19051600    0.22380100
Se    4.17520000   10.36299000    1.05848000     -0.621377   -0.83277900    0.57439000
Se    4.10686000   10.12949000   10.78311000     -0.002563    0.32791600   -0.03593300
Se    4.70161000   16.29972000    1.21958000     -0.509961    1.09921800   -0.80730000
Se    4.52928000   16.06384000   11.04352000     -0.296729    0.58206300   -0.60302800
Se    3.96473000   22.19755000    1.16044000      1.488830    0.20888900   -0.15972000
Se    4.59100000   22.15172000   10.96475000     -0.319882   -0.34543900    0.16193000
Se   10.09354000    4.27829000    1.31476000     -0.716438    0.25120000   -0.24300200
Se   10.20854000    4.38676000   11.16539000     -0.135226   -1.14657600    1.13410600
Se    9.96103000   10.26773000    1.42101000     -0.324016   -0.47254500    0.24913800
Se    9.78374000   10.33870000   11.07925000      0.320507   -0.05465500   -0.08459900
Se   10.09345000   15.64927000    1.31802000     -0.056917    0.72824300   -0.67243000
Se   10.18391000   16.01257000   11.02076000      1.047687   -0.09707200    0.32520900
Se   10.22664000   21.56614000    1.20649000     -0.366063    0.39075700   -0.69711600
Se   10.09759000   21.84369000   11.18720000     -0.521452    0.75276600   -0.54397500
Se   15.90835000    4.24393000    1.41725000      0.508475   -0.26511900   -0.34370700
Se   15.81480000    4.35085000   11.04473000      0.334374   -0.65905000    0.55976600
Se   15.89547000   10.24625000    1.44653000      0.629202   -0.40357000    0.46279300
Se   15.95434000   10.75414000   10.94727000     -0.741972   -0.26247600    0.04479600
Se   16.32920000   15.69206000    1.32621000     -1.385615   -0.30571000   -0.04850700
Se   16.03179000   16.27326000   11.00856000      0.045240   -0.77476900    0.48678100
Se   15.85868000   21.64341000    1.24808000      0.238683   -0.03910100   -0.20344100
Se   16.13331000   21.67811000   11.44796000      0.370463    0.60700900   -1.04389300
Se   21.54278000    4.23768000    1.17037000     -0.164535    0.21434200   -0.25808200
Se   21.89946000    4.18971000   10.69621000     -0.822253    0.47443500   -0.17530900
Se   21.88647000   10.06442000    1.19214000     -0.440364    0.66050000   -0.75798900
Se   21.76080000    9.84958000   10.86576000     -0.902494    0.18160100   -0.00223500
Se   21.79914000   16.00679000    1.36020000     -0.616303   -0.02028200   -0.39425200
Se   21.98403000   15.53864000   11.13851000      0.882206    1.25645300   -1.15357600
Se   21.70238000   21.49180000    0.95474000     -0.459105    0.54548200    0.23323200
Se   22.17144000   21.35764000   10.98749000     -1.290958   -0.65705100    0.23448800
Se    1.67317000    4.31298000    8.79660000      0.440404   -0.71010500   -0.96877100
Se    1.21223000    4.21809000   18.27945000      0.673929   -0.24223600   -0.25039900
Se    1.06521000   10.14900000    8.26499000      0.340243    0.20848700    0.11089200
Se    1.20384000   10.23174000   17.96188000      0.601190   -0.01156900   -0.06379500
Se    1.65934000   15.95181000    8.29808000     -0.182833   -0.63470600    0.23700500
Se    1.53553000   15.74640000   18.42986000      0.506154    0.53275500   -0.14187500
Se    1.70284000   21.73168000    8.65453000      0.342743   -0.19739900   -0.78491100
Se    1.48990000   21.61041000   18.23452000      0.151728    0.49896300    0.09123900
Se    7.26503000    4.24171000    8.78681000      0.227523    0.18097500    0.09310200
Se    7.42657000    4.58653000   18.47273000     -0.124724    0.24301900   -0.56761400
Se    7.35663000   10.29353000    8.43655000      0.026925   -0.01357000   -0.29156000
Se    6.52727000   10.69086000   17.99283000      1.126500   -0.90897300   -0.29322000
Se    7.90090000   16.34519000    8.75852000      0.025969   -0.72239300   -0.39622400
Se    7.28731000   16.12487000   18.00615000     -0.464481    0.36106100    0.96212100
Se    7.54836000   21.72448000    8.50585000     -0.711131    0.12097400   -0.07599100
Se    6.97842000   21.96281000   18.32899000     -0.286815   -0.92276000    0.04209300
Se   12.81720000    4.11015000    8.78728000      0.153712    1.12345400   -0.49269900
Se   13.18682000    4.09919000   18.80953000     -0.511364    0.45464400   -0.22938300
Se   13.31122000    9.98235000    8.59887000     -0.842893   -0.30430200    0.26406700
Se   12.68335000   10.22121000   18.01353000      0.374842    0.39258400    0.22003500
Se   13.20001000   16.01694000    8.57351000      0.225036    0.97623900   -0.15389500
Se   13.21544000   15.60698000   18.32631000      0.639252    0.31318700   -0.36256200
Se   12.62116000   21.68164000    8.19092000      0.242458   -0.06877300    0.37909700
Se   13.03174000   21.65992000   18.01663000     -0.322536   -0.07217800    0.67993000
Se   18.53628000    4.40156000    8.69187000      1.253848   -0.00010000   -0.78456700
Se   18.68127000    4.40048000   18.38992000      0.148469    0.20337700   -0.17493700
Se   19.08983000   10.27564000    8.72739000      0.299043    0.94665500   -0.40343800
Se   19.04875000   10.22719000   18.42256000     -0.350682   -0.04086800    0.27682900
Se   18.74660000   15.78641000    8.60474000     -0.344518    0.57952300    0.53263600
Se   18.63052000   15.73037000   17.89022000      1.149457   -0.17801900    0.15057600
Se   18.84830000   21.56652000    8.23276000     -1.050252    0.02457500    0.94983900
Se   19.02664000   21.64592000   18.29904000      0.015839   -0.20926500   -0.08944900
Se    4.51573000    1.43663000    8.58220000     -0.932507    0.23313400   -1.06692700
Se    4.28335000    1.51686000   18.30522000     -0.740584    0.74628600   -0.84945700
Se    4.59298000    6.84710000    8.40834000      0.125857    3.46013900   -0.17883800
Se    4.21448000    7.25131000   18.09915000     -0.277073    0.36021600   -0.03175600
Se    4.10197000   13.11785000    8.40848000      0.369065   -0.78058500    0.19058600
Se    4.11321000   13.41742000   18.01816000     -0.287955    0.09417800    0.30088600
Se    4.72121000   18.93660000    8.58917000     -0.675518   -0.30319100   -0.39594400
Se    4.26712000   19.23912000   18.49508000      0.595275   -0.88059600    0.18727100
Se   10.09330000    1.28282000    8.42151000     -0.137952    0.46020400   -0.23094000
Se    9.94763000    1.34396000   18.51983000      0.600606    0.58882400    0.26735600
Se   10.20956000    7.47648000    8.91518000     -0.707555   -1.26988200   -0.44621000
Se   10.16460000    7.33212000   18.72078000     -0.621010    0.22814200   -1.60783600
Se   10.53792000   13.04095000    8.55459000     -0.459304   -0.43037300   -0.44381600
Se    9.99515000   13.15994000   18.33415000     -0.707296    0.27699400   -0.53151700
Se   10.50015000   19.15411000    8.95436000     -0.701949    0.35698000   -1.11857900
Se   10.64342000   18.68901000   18.15616000     -0.652515   -0.26906800   -0.00646600
Se   15.69914000    1.19627000    8.80212000      0.106938    0.03914000   -0.16332600
Se   16.03204000    1.33160000   17.91096000      0.616276   -0.04239000    1.10911600
Se   15.37153000    7.09810000    8.83119000      0.375808   -0.06974800   -0.19635100
Se   15.81254000    7.39986000   18.25343000     -0.899009   -0.36222500   -0.37347900
Se   15.66150000   13.13464000    8.70453000      1.316557    0.24454300    0.11929900
Se   16.17769000   12.93081000   18.34026000      0.285949    0.13971900    0.50192500
Se   15.98917000   19.19595000    8.58497000      0.072583   -0.50050900   -0.16757400
Se   16.26614000   18.58874000   17.81890000      0.015549    1.20840100    0.93159300
Se   21.63145000    1.10726000    8.74551000      0.567316    0.08671000    0.14384000
Se   22.07979000    1.26601000   18.22037000      0.228119    0.57116300    0.72909400
Se   21.62332000    7.21049000    8.77629000      0.433675    0.03939700    0.04956700
Se   21.48599000    7.15082000   18.16474000      0.365266   -0.06239400    0.13359100
Se   22.02166000   13.42300000    8.45553000     -0.121510   -0.84330800    0.17118800
Se   21.79696000   13.11897000   18.24432000      0.013043    1.17325200    0.13949200
Se   21.77732000   18.53053000    8.35822000     -0.013068    0.52539100    0.09013400
Se   21.76905000   18.60076000   18.14848000     -0.522146   -0.67035500   -0.63659700
Se    1.57622000    1.37225000    6.06003000     -1.174955    1.20621600   -0.63673700
Se    1.33290000    1.49414000   16.12145000     -0.564510    0.43472700   -0.85228900
Se    1.62038000    6.94516000    5.95192000     -1.391253    0.31126700    0.35898900
Se    1.33157000    7.25792000   15.94077000      0.838176    0.09011400   -0.37881600
Se    1.57242000   13.31560000    5.89739000     -0.436930   -0.41568400    0.11940800
Se    1.57984000   13.04247000   15.72417000     -1.247326    0.05790400   -0.38910500
Se    1.69119000   18.84017000    5.86766000     -0.510803   -1.40656200    1.44435900
Se    1.46707000   18.98300000   16.22782000     -0.094609    0.18073400   -0.75661100
Se    7.23440000    1.74572000    6.23645000     -0.201899    0.20307700   -0.46156300
Se    7.41729000    1.65662000   16.11946000     -1.674042    0.14863500   -0.10483500
Se    6.86743000    7.47948000    6.39469000     -0.265802    0.26858700   -0.36481900
Se    6.88965000    7.38043000   15.81692000      0.908669   -0.32530100    0.60847100
Se    7.16357000   13.51164000    6.47395000      0.423368    0.00573300   -0.35163300
Se    7.22753000   13.72423000   15.95313000     -0.140583   -0.94111500    0.39380900
Se    7.37982000   19.14393000    6.19057000      0.307535   -0.27439900   -0.07271600
Se    6.98985000   19.08520000   15.64605000      0.879969   -0.80479800    0.79716000
Se   13.08070000    1.66840000    6.13342000     -0.435596   -0.20501900    0.24415700
Se   13.12718000    1.32832000   15.73676000     -0.052215    0.47460100    0.05081700
Se   12.86626000    6.88174000    5.67206000     -0.216930   -0.38955200    1.02248800
Se   12.86831000    7.13207000   15.93351000     -0.754138   -0.47188000    0.22010000
Se   13.09714000   13.35688000    6.31909000      0.656984    0.19258900   -0.37675300
Se   13.32035000   13.11482000   15.57104000      0.241033   -0.33417800    0.32647000
Se   13.02927000   18.90951000    5.99824000     -0.029184   -0.57761900    0.59760400
Se   13.31625000   18.70009000   15.70333000      0.068699    0.31093300   -0.07335900
Se   18.90971000    1.32059000    6.27803000      0.437674    0.72509600   -0.70274000
Se   18.85173000    1.49656000   16.02202000      1.085433   -0.29664100    0.20615200
Se   18.73585000    7.19230000    6.34066000     -0.546297    0.59250600   -0.38816100
Se   18.68754000    7.38479000   15.63125000     -0.236471   -0.79802400    0.61552400
Se   18.93752000   13.07522000    6.15884000      0.088592    0.14450000   -0.27760400
Se   18.81858000   12.99996000   15.51600000     -1.151428   -0.55050400    1.37240400
Se   18.69605000   18.17814000    6.02375000      1.189404    1.29165600   -0.48031700
Se   19.12336000   18.92457000   16.07146000     -1.234185   -0.13705500   -0.12479500
Se    4.44422000    4.51526000    5.88825000      0.022447   -0.45460000    0.10133700
Se    4.16748000    4.16202000   15.86320000      0.225815   -0.06795300   -0.46823400
Se    4.21705000   10.28266000    5.93059000     -0.163329   -0.52517800   -0.05379800
Se    4.32881000   10.05498000   15.79169000      0.378019    0.38037700    0.15411500
Se    4.85944000   16.14561000    6.15361000     -1.143789   -0.60070700   -0.76051200
Se    4.42407000   16.32620000   15.91636000     -0.357552   -0.07733200    0.26271300
Se    4.39311000   22.02575000    5.75428000      0.077691   -0.49270200    0.08226100
Se    4.21633000   21.96215000   15.61533000      1.273352   -0.79733700   -0.83527600
Se    9.83649000    4.97902000    6.22278000      0.287128   -0.64178900    0.18477500
Se    9.96886000    4.75547000   15.36193000      1.132538    0.05266600    0.60339200
Se    9.93095000   10.11272000    6.07668000      0.267448    0.16820200   -0.08037700
Se    9.70628000   10.31449000   15.83023000      1.082076   -0.13481800    0.10084200
Se   10.37747000   16.13441000    6.32899000     -0.055400   -0.31776200   -0.41059900
Se   10.06808000   16.27128000   15.45744000      0.665532    0.22326800    0.36186000
Se   10.14528000   21.76550000    5.69261000      0.451107    0.96636600    0.52637000
Se   10.12452000   21.55679000   16.21985000     -0.702992    0.31505100   -0.22328300
Se   16.03110000    4.23308000    6.56854000     -0.616431   -0.34946900   -1.08751900
Se   16.06004000    4.68802000   16.06310000     -0.665516   -0.68322700   -0.04840700
Se   15.71570000   10.13428000    6.07651000      0.544160   -0.10091400    0.02750600
Se   15.72419000    9.89950000   16.05258000      0.802405    0.95798000    0.70258700
Se   16.28755000   16.23557000    6.04964000      0.186357    0.05356100    0.12149700
Se   16.18577000   15.56154000   16.06450000      0.828718    0.64534200    0.20765000
Se   15.80245000   22.08666000    5.88902000     -0.268857   -1.04433500   -0.32866000
Se   16.07768000   21.97747000   15.47314000      0.834256    0.30525800    0.74683200
Se   21.80184000    4.60914000    5.92972000     -0.626067   -0.46253300    0.46295000
Se   21.90628000    4.39784000   15.56252000     -1.072238    0.30924800    0.59807900
Se   21.73424000   10.17852000    6.25457000      0.651962   -0.87235100   -0.64817600
Se   21.55503000   10.31871000   15.63522000      0.344428    0.18261600    0.53812200
Se   22.00663000   15.52097000    6.23956000      0.171389    1.20702100    0.62543600
Se   22.13628000   15.68590000   15.63144000     -1.169171   -0.30484300    0.02046100
Se   21.73126000   21.51786000    6.09195000      0.385348   -0.87273800   -0.74040100
Se   21.84435000   21.79390000   15.94460000      0.875162   -0.90800800   -0.85236000
Se    4.30499000    1.76369000    3.40053000     -0.511439   -0.35193900    0.63226500
Se    4.18329000    1.47151000   13.19161000     -0.389415   -0.76721900    0.62747100
Se    4.14550000    7.32888000    3.37713000      0.743540    0.40590600   -0.69385700
Se    4.71097000    7.30891000   13.89945000     -0.274820    0.19239500   -1.00187900
Se    4.55481000   13.27228000    3.39054000     -1.026477   -1.58420700    0.92678900
Se    4.56033000   13.15456000   13.43931000     -0.436383   -0.16349000    0.30348600
Se    4.54302000   19.00354000    3.50864000      0.291934    0.15621800   -0.32020800
Se    4.69661000   19.13409000   13.34507000     -0.643569   -0.79308800    0.31865400
Se    9.82790000    1.88864000    3.70121000      0.352930   -1.83089200   -0.02487300
Se   10.35069000    1.42310000   13.34040000     -0.378792    0.83987200    0.49157300
Se    9.87161000    7.15515000    4.09324000      0.752326   -0.13468800   -0.92242600
Se    9.78486000    7.28420000   13.61222000     -0.497419    0.46404900    0.36180800
Se    9.90123000   13.09921000    3.90829000      0.028111    0.96614400   -0.03575900
Se   10.39848000   12.98718000   13.74532000      0.309141    0.15421000   -0.53338000
Se    9.89477000   18.70126000    3.64003000      0.465039   -0.29840100   -0.46024900
Se   10.10572000   18.86818000   13.32467000      0.131674    0.15330100    0.49069900
Se   15.92575000    1.38033000    3.54810000      0.900985    0.46323400   -0.27886200
Se   15.82026000    1.45929000   13.26695000     -0.268655    0.13212400    0.71489300
Se   15.95031000    7.07724000    3.85463000      0.788993   -0.17376500   -0.56521300
Se   15.50203000    7.61212000   13.27538000     -0.121342   -1.33515400    0.06323200
Se   16.21013000   12.96679000    3.87260000     -0.879953    0.05782500    0.51541200
Se   16.63366000   13.30620000   13.25890000     -0.084571   -0.12093100   -0.44243000
Se   15.61791000   18.76185000    3.59398000      0.512860   -0.06772100   -0.01205000
Se   16.12485000   18.81323000   13.51059000      0.534684   -0.86057900   -0.12098500
Se   22.01077000    1.38782000    3.74386000      0.152400   -0.17782600   -0.23645100
Se   21.63459000    1.24722000   13.20879000      0.006506    0.67887200    0.37392100
Se   21.90478000    7.50188000    3.92299000     -0.916030   -0.51599100    0.11382100
Se   21.82127000    7.16419000   13.72468000     -0.142576    0.87498500   -0.79130800
Se   22.21946000   12.79460000    3.77574000     -0.734889    1.18374000   -0.32127700
Se   22.22508000   12.86873000   13.16174000     -0.895579   -0.67193100    0.94607300
Se   22.23122000   18.65858000    3.99486000     -0.296503   -0.53001500   -0.14364100
Se   22.21228000   18.63342000   13.84578000      0.219637    0.15513200   -0.80622600
Se    1.20831000    4.44469000    3.89544000     -0.203269    0.77089400   -0.40195600
Se    1.21491000    4.32037000   13.38844000     -0.157300   -0.14878400   -0.05156400
Se    1.24032000   10.16644000    3.82100000      0.641043    0.18545200   -0.04524200
Se    1.57636000   10.01663000   13.10654000     -0.507936    0.59065200   -0.33756200
Se    1.64717000   15.99065000    3.21592000      0.554637    0.08470200    0.92635600
Se    1.73307000   15.96185000   13.50016000      0.446589    0.31330500    0.50398800
Se    1.47171000   21.73951000    3.39030000      0.102380   -0.36370800    0.41419300
Se    1.45193000   21.62759000   13.31719000      0.713532    0.74584800    0.47077300
Se    7.26285000    5.01189000    3.65424000     -0.266740   -1.79842400   -0.02548700
Se    7.37381000    4.35691000   13.32599000     -0.046631   -0.21651400    0.39317000
Se    7.05785000   10.28144000    3.64261000      0.064229   -0.02756600   -0.00132500
Se    7.18425000   10.40046000   13.14294000     -0.420592    0.21956500   -0.30654000
Se    7.14132000   16.31049000    3.79338000      0.053450   -0.39898300   -0.40496500
Se    7.54659000   15.88186000   13.04046000     -0.261446    0.70040800   -0.27784800
Se    7.45763000   22.06028000    3.16758000     -0.553541   -0.47946600    0.32765500
Se    7.43711000   21.99812000   13.43476000     -0.158782    0.14402500   -0.25922100
Se   13.11935000    4.37464000    3.67852000     -0.428788   -0.72866300   -0.28225700
Se   13.15518000    4.48684000   13.79865000     -0.063021   -0.36959400   -0.49113800
Se   12.84256000    9.99605000    3.90606000      0.379190   -0.31571400   -0.17056500
Se   12.69735000   10.42719000   13.49353000      0.120117   -1.24777400    0.41416100
Se   13.11190000   15.77428000    3.79786000      0.066893    0.02260900   -0.27605600
Se   13.28135000   15.93440000   13.63311000     -0.055888    0.01685000   -0.58105600
Se   12.79988000   21.60156000    3.41883000      0.476043    0.57198900    0.45481400
Se   13.25027000   21.79567000   13.16323000      0.546137    0.12431400    1.08537400
Se   19.26009000    4.27451000    3.48063000     -0.554763   -0.74083900    0.36115300
Se   18.80026000    4.16791000   13.52549000     -0.512666    0.75952800   -0.44736200
Se   18.58421000   10.31183000    4.15057000      0.384670   -0.40830600    0.04165800
Se   18.64514000   10.39065000   13.50985000     -0.642485   -0.42221400   -0.82319200
Se   19.08583000   15.86004000    3.64240000      0.540523   -0.24734200    0.39584100
Se   19.57118000   16.06730000   13.29270000      0.150861   -0.05192300    0.72722900
Se   19.01235000   21.26068000    3.65955000     -0.585232    0.06435000   -0.49103100
Se   19.36880000   21.61514000   13.22597000      0.374826    0.03783100    0.71875900
