384
23.23808000 23.23808000 19.51320000
Ge    5.70659000    5.71833000    9.96144000     -0.314766    0.77388400   -0.91045000
Ge    5.84557000    5.93556000    0.01606000      0.064600    0.40493900    0.11578700
Ge    5.64482000   11.59785000    9.52936000      0.075021   -1.06615700    0.43103800
Ge    5.56399000   12.05739000    0.00671000     -0.494829   -1.34625900   -0.80519600
Ge    5.93568000   17.64491000    9.75475000      0.201341   -0.66468200    0.23710200
Ge    6.16880000   17.95040000   19.27462000      0.898148    0.30004900    0.32385300
Ge    6.01427000    0.09460000    9.53908000      0.261411    1.05760600    0.01928400
Ge    5.69814000    0.22215000    0.25702000      0.799986    0.54044800   -0.92415700
Ge   11.57136000    5.89258000    9.97961000      0.561550   -1.09407000   -0.02799900
Ge   11.62815000    5.77138000    0.15317000     -0.887936    1.09377500    0.05403800
Ge   11.69019000   11.27118000    9.86485000     -0.224204   -0.24173600   -0.35808700
Ge   11.51348000   11.55913000   19.47896000     -0.904096    0.83777800    0.28881500
Ge   11.90290000   17.45320000    9.89055000     -0.928532    0.77366200    0.44864900
Ge   11.79212000   17.13774000    0.17026000     -0.337219    0.08705400   -0.62014500
Ge   11.57245000   23.19020000    9.80155000      0.243849   -0.09513000    0.16263200
Ge   11.60499000    0.02623000    0.14814000      0.045894   -0.60289700   -0.95528300
Ge   17.11204000    6.01346000   10.05344000      0.817525   -0.23606800   -0.21396200
Ge   17.04566000    5.87553000   19.49098000     -0.018460    0.86760800   -0.01107200
Ge   17.48998000   12.00723000    9.77019000     -0.425679   -1.26998900   -0.24449300
Ge   17.67919000   11.46637000    0.25033000      0.072282    0.40080500    0.39316400
Ge   17.42307000   17.60139000    9.80233000      0.489176   -0.22531300   -0.11032000
Ge   17.28428000   17.09086000   19.13161000      0.243504    0.83238900    0.46304600
Ge   17.31282000   23.17175000    9.66747000     -0.045743   -0.96935400   -0.07267300
Ge   17.30378000   23.17717000   19.36057000     -0.766410   -1.72254100   -0.78065200
Ge    0.07116000    5.85481000    9.73437000      0.724137   -0.41446500   -0.00569900
Ge   22.93985000    5.69590000   19.47511000      0.954755   -0.26610000    0.44526600
Ge   23.03928000   11.69247000    9.75764000      0.074474   -1.00387000    0.23901400
Ge    0.07040000   11.60396000    0.01760000     -0.410733    0.58618300   -0.63310900
Ge   23.16171000   17.18714000    9.79036000      0.947144    1.05169700   -0.84904400
Ge    0.00184000   17.35859000   19.40830000     -0.861710   -0.81634100   -0.41375000
Ge    0.17011000   23.12126000    9.69456000     -1.311915   -0.93404900   -0.20498600
Ge    0.21700000   23.00577000    0.08430000     -0.820693    0.14941100    0.63895100
Ge    2.96621000    5.51249000    7.36849000      0.555113    1.55791600    0.10824400
Ge    2.85108000    5.61474000   17.11276000      0.118539   -0.29988600    0.45791300
Ge    2.70349000   11.68007000    7.24937000     -0.491711    0.26631600   -1.27078000
Ge    2.96297000   11.55653000   16.98247000      0.229802    0.90997600   -0.57039600
Ge    3.10887000   17.50362000    7.25793000     -0.212056   -1.15742700    0.71011900
Ge    2.93605000   17.44335000   17.33816000     -0.953757    1.39494500   -0.56519700
Ge    3.03893000   23.22700000    7.23322000     -1.282847   -0.10157500   -1.13758000
Ge    2.94330000    0.07607000   17.23182000     -0.107368   -0.07149800   -1.73282200
Ge    8.31691000    6.00252000    7.59681000      0.049703    0.04959100   -0.45029800
Ge    8.61700000    6.16913000   17.15910000      0.874339   -0.33710400   -1.24583100
Ge    8.70147000   11.85316000    7.21046000      0.033540   -0.90764900    0.79664700
Ge    8.46325000   11.88982000   17.14038000      0.852201   -0.96367000   -1.03017700
Ge    9.09982000   17.82912000    7.56466000      0.107975    0.06198100   -0.40888600
Ge    8.68322000   17.90847000   16.77243000      1.075663   -1.72196200    0.48144300
Ge    8.89947000    0.17510000    7.10290000     -0.283704    0.21513900   -0.01628300
Ge    8.70118000   22.96523000   17.19970000     -1.412818    1.64053800    0.32021700
Ge   14.31079000    5.56513000    7.37355000      0.267001    0.23760500   -0.07782300
Ge   14.42504000    5.85717000   17.11730000     -0.938182   -0.62275600    0.22764900
Ge   14.44378000   11.46316000    7.28437000      0.529253    0.12920400    0.21949500
Ge   14.50277000   11.61150000   17.15666000      0.771458    0.89981600   -0.14788300
Ge   14.74343000   17.77705000    7.39468000      0.472524   -0.24824700   -0.32858200
Ge   14.49936000   17.02310000   16.94327000      0.472998    0.83858700    0.21211600
Ge   14.28427000   23.03921000    7.24492000     -0.617622    0.48960400   -0.32926500
Ge   14.37893000   23.08301000   16.93234000      0.264263    0.39219800    0.13598000
Ge   20.37700000    5.63066000    7.43046000     -0.698009    0.69734500    0.10193200
Ge   20.22827000    5.62271000   16.98663000     -1.025339    0.38653600   -0.57040100
Ge   20.31576000   11.86349000    7.40790000      2.011535    0.97204800   -1.66108700
Ge   20.40392000   11.59317000   17.03473000     -0.014930    0.93280400    0.85208600
Ge   20.34118000   17.03926000    7.48434000      0.198480    0.06446800   -0.40293300
Ge   20.50452000   17.05601000   16.86761000     -1.293957   -0.27861800   -1.45979200
Ge   20.52571000   22.93584000    7.33612000     -0.035128    0.63973700   -0.01582900
Ge   20.08557000    0.11791000   17.19504000      2.105857   -1.31796200    0.08233500
Ge    2.90760000    3.01296000    4.96751000     -0.441282    0.51418000   -0.77663900
Ge    2.76507000    2.69032000   14.61719000     -0.161363    0.14745000    0.06948200
Ge    2.76790000    8.72305000    4.75644000      0.083348   -0.62093500    0.46070800
Ge    2.78563000    8.61641000   14.69647000      1.236039    1.46326800   -1.25286800
Ge    3.15184000   14.55335000    4.65500000      0.058583   -0.50511400    1.24042500
Ge    3.20309000   14.57429000   14.78118000     -0.949715   -0.63909500    0.86190800
Ge    2.83954000   20.30235000    4.58495000      0.116553   -0.43311700    1.21914400
Ge    2.95079000   20.25755000   14.70657000      0.493351    0.40280600   -1.05694100
Ge    8.41276000    3.31882000    5.04659000      1.308027   -1.50541400   -0.53479300
Ge    8.66280000    2.90722000   14.55124000      1.017842    0.08779200    0.88092400
Ge    8.38746000    8.59994000    4.99687000      0.944726    0.42575600   -0.06407700
Ge    8.36508000    8.82196000   14.46109000      0.170746    1.20567700    1.00924900
Ge    8.64028000   14.91264000    5.05997000     -0.013414   -0.19309500    0.62901400
Ge    8.90611000   14.55128000   14.49325000      0.430959    0.60489600    0.15401000
Ge    8.64776000   20.55439000    4.65908000      1.071762    0.00497200    0.29255100
Ge    8.68594000   20.32666000   14.38915000     -0.587482    0.57831600    0.62082100
Ge   14.58054000    3.05285000    4.92141000     -0.804079   -1.49499200    0.08434700
Ge   14.64465000    2.84774000   14.84953000     -0.280514    0.89075400    0.21612500
Ge   14.34587000    8.47843000    5.10671000      0.745715   -1.15609000   -0.60046300
Ge   13.99747000    8.85506000   14.72697000      1.592874   -1.53259300    1.37339400
Ge   14.71582000   14.47694000    4.95990000     -0.258451    0.54880600    0.69087900
Ge   14.70699000   14.36083000   14.35157000      0.953718    0.56216100    0.60666200
Ge   14.43161000   20.60589000    4.88839000     -0.596850   -1.73178400   -0.80847000
Ge   14.62350000   20.45237000   14.65821000      1.586221   -1.36797400   -0.04232500
Ge   20.53574000    2.73697000    5.03699000      0.031386   -0.00551600   -0.91227500
Ge   20.27819000    2.83756000   14.54099000      0.116694    0.40221300   -1.07621100
Ge   20.26881000    8.79737000    5.10886000      0.125404    0.28065300    0.43943900
Ge   20.24819000    8.72986000   14.58608000     -0.650155    0.03135500    0.35642800
Ge   20.54120000   14.29797000    4.82277000     -0.371744    1.38884000    0.54166600
Ge   20.91896000   14.22505000   14.41889000     -1.854590   -0.17095200   -0.22418100
Ge   20.19215000   19.78927000    4.93673000      1.730345    1.89403100   -0.31260600
Ge   20.90374000   20.06084000   14.83766000     -1.184609   -0.31881900   -0.11266800
Ge    5.88254000    3.13646000    2.59065000     -0.457821   -1.56696300   -1.19927100
Ge    5.75488000    3.04207000   12.14054000      0.653879   -1.33639000    0.02606900
Ge    5.77480000    8.83289000    2.02788000     -0.175649   -0.54259900    1.53848900
Ge    5.57631000    8.85348000   12.26828000      0.027318    0.04157300   -0.49029800
Ge    5.95407000   14.74096000    2.61371000     -1.085584   -0.61375000   -1.63416400
Ge    5.97413000   14.46993000   12.04499000     -0.905254    1.28860900    0.54119600
Ge    5.86290000   20.70555000    2.40211000     -0.497231   -0.96219600   -0.41031700
Ge    5.89163000   20.73066000   11.90748000     -1.034483   -0.71090200    0.45547500
Ge   11.64320000    2.93103000    2.58812000     -1.262349   -1.19836200   -1.21330200
Ge   11.72297000    3.21974000   12.25822000      1.613756   -1.45454600    1.10510700
Ge   11.30036000    8.53582000    2.58289000      0.183535    0.72719700    0.92441300
Ge   11.22820000    8.78366000   12.51150000      0.511080   -1.48255000   -0.62580000
Ge   11.52357000   14.38535000    2.54197000     -0.697730    0.11997300    0.40664000
Ge   11.70387000   14.50056000   12.17914000      0.059490   -0.51161200    0.31515500
Ge   11.60622000   19.87706000    2.48736000     -0.461097    1.49924200    0.10587800
Ge   11.79284000   20.33071000   12.19119000     -1.286073    1.08173300    1.05332300
Ge   17.38441000    2.83204000    2.47328000      1.460464   -0.11917800   -0.42676800
Ge   17.31512000    2.72235000   12.05791000     -0.048649   -0.09877300    0.11327000
Ge   17.24402000    8.68320000    2.68463000      0.238955    0.85895800    0.10676900
Ge   17.09334000    9.24065000   12.36750000     -1.119157   -0.09588200    0.21927500
Ge   17.84283000   14.28288000    2.61739000     -0.699774    0.16656800   -0.40295600
Ge   17.78596000   14.87678000   12.10770000      0.373607    0.43534900    0.47450500
Ge   17.40858000   20.05682000    2.33677000     -0.921242   -0.04116100   -0.13076700
Ge   17.68769000   20.19833000   12.59531000      0.622960   -0.14028800   -0.97401700
Ge   23.06665000    2.90415000    2.47580000     -0.128555    0.80525800   -0.28291700
Ge    0.02210000    2.70183000   12.04654000     -0.120833    1.24461200    0.03116400
Ge   23.11243000    8.68765000    2.42807000      0.304608    0.25918800   -0.00176800
Ge   23.16236000    8.54942000   12.34100000     -0.399098    0.57549300   -1.42478800
Ge    0.20105000   14.40248000    2.34447000     -0.214607    1.07889400    0.23202000
Ge    0.58698000   14.22191000   12.13458000     -0.544208    0.62645700    1.03786000
Ge   23.07654000   20.22342000    2.30567000     -0.366213   -0.18806000    0.40671600
Ge    0.30736000   20.05847000   12.14896000      0.176600    0.18320900    0.40893300
Se    1.36577000    1.49988000    1.37746000      0.598930   -0.68477200   -0.62125800
Se    1.56341000    1.31812000   10.84716000      0.633884    0.37644500    0.69405300
Se    1.35080000    7.06618000    1.26177000     -1.053164    0.19788600   -0.08545800
Se    1.47572000    7.24381000   11.06046000     -0.006071   -0.07758000    0.01336800
Se    1.66987000   13.08981000    1.03994000     -0.194814   -0.30485900    0.07927400
Se    1.77872000   12.79009000   10.76788000      0.004894   -0.50337200   -0.38676900
Se    1.27679000   18.85350000    1.03785000      1.423561    0.61357200    0.48511800
Se    1.59649000   18.28191000   11.15477000     -0.030085    0.48732200   -0.29457700
Se    7.45002000    1.55858000    1.37905000     -1.152081    0.20238200    0.13314400
Se    7.48937000    1.76151000   10.58409000     -1.438782   -0.20704300    0.50961400
Se    7.47403000    7.36660000    1.16773000     -1.059541    0.24215500   -0.23985000
Se    7.12279000    7.39351000   10.98747000     -0.250563    0.04818700    0.25081100
Se    7.22246000   13.13522000    1.12752000      0.741338    0.88165700    0.91513800
Se    7.20239000   13.06774000   10.73062000      0.276033   -0.82963700   -0.65131500
Se    7.48067000   19.67941000    1.00022000     -0.248795   -1.47619400   -0.29634500
Se    7.40004000   19.29712000   10.65027000     -0.510769    0.29643300    0.48187300
Se   13.24136000    1.15015000    1.39217000     -0.590286    1.19345000    0.36355300
Se   13.30446000    1.45394000   10.87011000     -1.450819    0.14611200    0.35693900
Se   12.92778000    7.47863000    1.32803000      0.363437   -0.64447100   -0.40147000
Se   12.92011000    7.44650000   11.31113000     -0.418107   -0.49109100   -0.34040500
Se   12.94051000   12.91589000    1.31815000      0.416904    0.11277800   -0.12657000
Se   13.08079000   12.91740000   10.98859000      0.099942   -0.05987900   -0.00528600
Se   13.21476000   18.40453000    1.81263000      0.405596   -0.84872600   -1.39537700
Se   13.26049000   19.14849000   10.93581000      1.221605   -0.89244400   -0.39824700
Se   18.71597000    1.01262000    1.20373000      1.052007    1.74607900    1.25532500
Se   18.84936000    1.39700000   10.72874000     -0.113943    0.17391800    0.23323800
Se   18.54908000    7.23058000    1.25251000      0.536570    0.34429500    0.07357600
Se   18.43336000    7.75010000   11.24976000      0.891913   -1.46216200   -0.83265500
Se   19.36490000   12.75320000    1.66049000     -0.831604   -0.23179400   -0.72846200
Se   19.10488000   13.13137000   11.07343000      0.104398    0.19963700   -0.11677700
Se   18.76448000   18.66959000    0.92056000     -0.100161   -0.19150300   -0.08054100
Se   19.09910000   18.70200000   11.06098000     -0.359998    0.54079800    0.44146100
Se    4.40576000    4.47888000    1.30685000      0.109360    0.28966700   -0.39240300
Se    4.10778000    4.34677000   11.20499000      0.071320    0.75513800   -0.59228100
Se    4.19387000   10.17566000    0.85565000      0.336008    0.38983700    0.07465700
Se    3.91195000   10.07457000   10.95025000      1.356793    0.52030000   -0.29496700
Se    4.76746000   16.54780000    0.94311000     -0.552069   -1.45079100    1.53054300
Se    4.50328000   16.13203000   11.01790000      0.262807    0.02174600   -0.04207100
Se    4.24678000   21.85445000    1.15676000     -0.621513    0.18763100    0.17322000
Se    4.29646000   22.30313000   10.78048000      0.891735   -1.04404900    0.56703800
Se    9.99814000    4.44766000    1.28043000      1.319747   -0.68298800    0.44684600
Se   10.08156000    4.32095000   11.14908000     -0.203514    1.09380300   -0.84667000
Se   10.10888000   10.28977000    1.41258000     -0.558476   -0.11012400    0.16207000
Se    9.95284000    9.99291000   11.07481000     -0.240261    1.10621600   -0.98783000
Se   10.01520000   15.82716000    1.22437000      0.749879   -0.01131000    0.21613800
Se   10.28652000   15.94669000   10.92508000      0.260115    0.33956600   -0.04088900
Se   10.32463000   21.58017000    1.24268000     -0.223816   -0.21050800   -0.10432300
Se   10.07642000   21.70442000   11.15302000      0.913035    0.70414000   -0.30578600
Se   15.91271000    4.36271000    1.43676000     -0.408525   -0.21636700   -0.29269500
Se   15.77634000    4.28215000   11.08671000      0.104157    0.03704000   -0.06031500
Se   15.92034000   10.43299000    1.53829000      0.599918   -0.68312100   -0.03173700
Se   15.83441000   10.48573000   10.77095000      0.652301    0.10472700    0.34124400
Se   16.18122000   15.56890000    1.40658000      0.133328    0.36414100   -0.88671700
Se   15.98950000   16.15440000   11.09461000      0.347632   -0.20305900   -0.11236400
Se   15.93037000   21.75245000    1.21298000      0.036664   -0.59280900    0.13857800
Se   16.14211000   21.67375000   11.31119000      0.506328    0.22982900   -0.28659600
Se   21.45359000    4.14908000    1.04680000      0.487680    0.04912900    0.43420000
Se   21.86869000    4.26939000   10.66065000     -0.277697   -0.84898400    0.91391800
Se   21.69213000   10.34337000    1.20785000      0.650253   -0.78768100    0.23691300
Se   21.58051000    9.85020000   10.88364000      1.001248    0.39591300    0.06329500
Se   21.82060000   15.98764000    1.23487000      0.389374   -0.76444300    0.38132400
Se   22.14648000   15.53315000   11.03781000     -0.975092   -0.38208700    0.41399000
Se   21.67600000   21.55276000    0.94173000      0.283277    0.29302700    0.14489600
Se   21.99871000   21.19490000   10.74915000      0.492709    0.96657400   -0.38197300
Se    1.62444000    4.14897000    8.84625000     -0.069164    0.72094300   -0.65973600
Se    1.27792000    4.04507000   18.56984000      0.538649    1.47619300   -0.72565400
Se    1.16449000   10.23643000    8.29664000      0.026995   -0.02225000    0.48949000
Se    1.36048000   10.24046000   17.98253000     -0.677037   -1.04390400    0.90013600
Se    1.40677000   15.90425000    8.36708000      0.511147    0.72034200   -0.06234200
Se    1.63411000   15.88140000   18.40493000     -0.674152   -0.34860200    0.31600300
Se    1.65235000   21.70909000    8.40518000     -0.548396   -0.13563700    0.07673200
Se    1.56651000   21.71287000   18.21404000      0.304401   -0.98573000    0.33434300
Se    7.21900000    4.14358000    8.65470000     -0.334983    1.06841100    0.62087900
Se    7.43340000    4.57052000   18.44355000     -0.247645   -0.73193100   -0.28043500
Se    7.40925000   10.18225000    8.44086000     -0.703254    0.78991600    0.30803400
Se    6.78441000   10.54910000   17.97184000     -0.470496   -0.21186500    0.81553600
Se    7.79306000   16.33112000    8.89666000     -0.659360   -0.11407200   -0.38199800
Se    7.24117000   16.27737000   17.96457000      0.721735    0.70839500   -0.03455700
Se    7.46890000   21.91122000    8.28059000     -0.279550   -0.39447900   -0.00098700
Se    6.92907000   21.84850000   18.37092000      0.175297    0.33846900   -0.35701500
Se   12.99258000    4.15087000    8.65551000     -0.969001    0.33696700    0.69504000
Se   13.19310000    4.38978000   18.68539000      0.484870   -0.54994100   -0.85422200
Se   13.26131000    9.83934000    8.51259000     -0.914641    0.20598900    0.58720700
Se   12.75777000   10.31331000   18.00050000     -0.098459   -1.13370800    0.03548200
Se   13.15975000   16.22242000    8.43063000      0.888710   -0.72792800   -0.39151400
Se   13.19652000   15.48196000   18.46507000      0.213841    1.12546900   -0.19517500
Se   12.38740000   21.65526000    8.06982000      1.300396    0.16477000    0.40270900
Se   12.86647000   21.64762000   18.07729000     -0.121342    0.49484500    0.53998500
Se   18.61702000    4.50230000    8.73748000      0.023784    0.20103700    0.11710300
Se   18.49502000    4.41992000   18.23816000      0.577358   -0.18987300    0.11744900
Se   18.98707000   10.46640000    8.43674000     -2.043347   -1.31917000    1.92162400
Se   19.06321000   10.10715000   18.38668000     -0.172098   -0.50130100   -0.11348200
Se   18.58074000   15.70900000    8.60759000      0.377381    1.35439400   -0.04289400
Se   18.74454000   15.71014000   17.60583000     -0.498900   -0.69526900    1.10323100
Se   18.75154000   21.55266000    8.22817000     -0.182059    0.79610700    0.54322300
Se   18.80383000   21.60172000   18.05608000     -0.507597    0.59532500    0.68483400
Se    4.26930000    1.47470000    8.42317000      1.140853    0.76071800    0.54818500
Se    4.34612000    1.62364000   18.25102000      0.376959    0.25071400    0.69188900
Se    4.40079000    7.37241000    8.47558000     -0.212007   -2.09090100    0.28227300
Se    4.38121000    7.32941000   18.15907000     -0.322316   -0.96067800    0.08751600
Se    4.29186000   13.10012000    8.21994000      0.361401    0.23897800    0.50590800
Se    4.01455000   13.31701000   18.26090000      0.147955    0.12445400   -0.21021400
Se    4.36849000   19.00371000    8.63689000     -0.088847    0.18551800   -0.36325000
Se    4.30187000   19.07638000   18.30686000      0.074811    0.74066100    0.03501300
Se   10.41065000    1.47786000    8.38170000     -0.421926    0.75547500    0.26853400
Se    9.88985000    1.37828000   18.49931000      0.637729   -0.39891300    0.16154500
Se   10.21603000    7.20422000    8.62148000     -0.830710    0.78980000   -0.54134700
Se   10.08565000    7.39420000   18.61932000      0.425635   -0.04429400   -0.14178700
Se   10.29072000   12.86263000    8.70743000      0.148691    0.50272200   -0.18608500
Se    9.90995000   13.14704000   18.40705000      1.062237    0.14645100    0.72619800
Se   10.44090000   19.20187000    8.99978000     -0.128712   -0.52797000   -0.39353200
Se   10.76015000   18.78327000   18.01322000     -0.505566   -0.26088700    0.39596100
Se   15.37306000    1.28261000    8.80857000      0.999851   -0.70041000    0.04472800
Se   15.96982000    1.37595000   18.01298000     -0.372305    0.12983500    0.24131800
Se   15.44692000    7.11957000    8.82178000     -0.143103    0.74239200   -0.35592000
Se   15.49696000    7.47358000   18.30835000      1.450103    0.13128500    1.27115100
Se   15.60660000   13.05018000    8.73270000      0.392231    0.59594600   -0.65732200
Se   16.05353000   12.83239000   18.63521000     -0.332965    0.66587000   -0.29297000
Se   16.21679000   19.37155000    8.64009000     -0.549921   -1.15297900   -0.23782500
Se   16.00691000   18.90356000   17.87249000     -0.391105   -1.92854400    0.58407600
Se   21.72237000    1.41480000    8.82154000     -0.069014   -1.37022900   -0.60749000
Se   22.09900000    1.16355000   18.30774000     -1.204800    0.88850600   -0.64800900
Se   21.76351000    7.22646000    8.61844000     -0.106048    0.03112500   -0.24456400
Se   21.63113000    7.13388000   18.08918000      0.254463    0.39643300    0.30878600
Se   21.90654000   13.35128000    8.46318000     -0.153445   -0.09867000    0.08440600
Se   21.82922000   13.18782000   18.37766000     -0.144040   -1.02425200   -0.30198200
Se   21.76286000   18.80450000    8.46391000     -0.250487   -1.03908300    0.44175400
Se   21.54842000   18.57240000   18.11760000      1.400496    1.18673400    1.29659300
Se    1.50768000    1.46043000    5.92601000     -0.308264   -0.73027900    0.97680000
Se    1.25299000    1.49087000   16.04994000      0.769558   -0.31730500   -0.07767100
Se    1.51553000    6.93404000    5.98297000     -0.033257    0.15755400    0.12440100
Se    1.42502000    7.28938000   15.90509000     -1.064005   -1.17261000    0.86390200
Se    1.35764000   13.50831000    5.91679000      1.434417   -1.07443700    0.51122400
Se    1.48374000   13.11956000   15.79677000      1.248670   -0.04810600   -0.04891000
Se    1.53262000   18.71768000    6.08637000     -0.045338    0.82301800   -0.99430900
Se    1.45238000   19.18069000   16.04394000     -0.239935   -1.34960500    1.06726500
Se    7.19777000    1.72381000    6.24814000     -0.146812   -0.58287500    0.15030600
Se    7.23701000    1.50149000   16.07999000      0.909732   -0.02003500   -0.42746900
Se    6.75834000    7.53511000    6.28629000      0.388113   -0.67684800    0.63897200
Se    6.93993000    7.46130000   15.80926000      0.361652   -0.42399100    0.57641900
Se    7.11185000   13.38427000    6.43432000      0.455403    0.83288300   -0.69987300
Se    7.34049000   13.67484000   16.08903000     -0.352193    0.16833200   -0.56891700
Se    7.53471000   19.14363000    6.21159000     -0.675744   -0.38586400    0.33327800
Se    6.99421000   18.99756000   15.57313000      0.396267    0.64602000   -0.33719200
Se   12.96443000    1.55798000    6.06720000      0.741204   -0.10323000   -0.15871300
Se   12.97331000    1.29144000   15.62509000      0.368974    0.23204000    0.47354600
Se   12.81159000    6.91180000    5.97413000      0.591896   -0.35763000    0.72631700
Se   12.74578000    7.07866000   15.99645000     -0.300476    0.85855700   -0.61504300
Se   13.13532000   13.14107000    6.29615000     -0.254811    0.48931000   -0.42086300
Se   13.19832000   13.09269000   15.66029000      0.215862   -0.65249500    0.45953800
Se   13.05802000   18.82422000    6.10312000      0.457172    0.97492000   -0.36102900
Se   13.23295000   18.58869000   15.43284000     -0.214828    0.17567000    0.25100600
Se   19.03683000    1.43811000    6.22737000      0.015424   -0.85553600    0.44874600
Se   18.84377000    1.60224000   15.94785000     -0.995518    0.39635400   -0.26719700
Se   18.88897000    7.16660000    6.24800000      0.330791   -0.14358100    0.05389100
Se   18.68176000    7.29994000   15.83643000      1.104872   -0.30307200   -0.07162300
Se   18.77639000   13.20958000    6.09403000      0.975640   -0.19671600   -0.11799500
Se   18.99972000   12.91269000   15.65911000      0.776206    0.71806100   -0.32699300
Se   18.88957000   18.20268000    5.77560000     -0.779424   -0.90554200    1.42508100
Se   19.01871000   18.93806000   16.00356000      1.549567   -0.64546800   -0.21616200
Se    4.53476000    4.43025000    5.86334000     -0.222425    0.25170400    0.66524600
Se    4.31244000    4.11233000   15.76484000     -0.249930    0.66185500    0.30021900
Se    4.19241000   10.20592000    5.96466000     -0.085424    0.35447100    0.29101100
Se    4.44900000   10.04903000   15.78543000     -0.806334    0.32120600    0.23983000
Se    4.66017000   15.99658000    6.26526000     -0.461495   -0.21988200   -0.60129300
Se    4.26505000   16.43759000   15.79473000      1.453209   -0.50506200   -0.63892300
Se    4.22673000   21.98740000    5.63870000      0.617858   -0.44678200   -0.04348100
Se    4.29895000   21.93881000   15.55655000      0.405377    1.02013000    1.12010500
Se    9.85623000    4.77814000    6.09853000      0.342803    0.21232900    0.66303000
Se   10.32948000    4.70725000   15.68164000     -1.837951   -0.33106000    0.36645000
Se   10.00557000   10.29501000    5.99302000     -0.312022   -0.68773800   -0.40548800
Se    9.91620000   10.27983000   15.90828000     -0.957320   -0.10338600   -0.38499100
Se   10.37871000   16.20994000    6.28450000     -0.400571   -0.26344000   -0.17837600
Se   10.18939000   16.49051000   15.30023000     -0.504637   -0.54981000    0.58981900
Se   10.29005000   22.08980000    5.70213000     -0.560199   -0.64260700   -0.42614600
Se   10.12013000   21.72655000   15.92146000      0.604572   -1.11253600   -0.94646000
Se   16.00343000    4.08372000    6.40247000      0.423689    0.91337000    0.25289100
Se   16.06669000    4.62066000   16.04145000     -0.233920   -1.11368500   -0.66860600
Se   15.83922000   10.11071000    5.88823000      0.607762    0.26998900    0.65697300
Se   15.75431000    9.77350000   16.36133000     -0.628524    0.14007500   -1.28467000
Se   16.16336000   16.18403000    6.04932000     -0.806957   -0.18715500    0.26608900
Se   16.21850000   15.65087000   15.89782000     -1.106692   -0.09490400   -0.57538500
Se   16.01388000   21.98431000    5.82311000      0.003223    0.52245900    0.92599600
Se   16.19557000   22.07900000   15.72117000     -1.070625   -1.08182600   -0.11892200
Se   21.92904000    4.33133000    6.17140000     -0.036724   -0.03400500   -0.00269700
Se   21.77367000    4.26640000   15.66636000     -0.118852    0.41382500    0.50900100
Se   21.86317000   10.13187000    6.40669000     -1.086851    0.47737900   -0.24021700
Se   21.80115000   10.23066000   15.74335000      0.298355   -0.75535500   -0.18336300
Se   22.03046000   15.67085000    6.33805000     -1.040679   -0.08740100   -0.30896900
Se   22.19194000   15.58216000   15.83226000      0.097507    0.73528800    0.42883500
Se   21.91428000   21.34496000    6.00126000     -1.210540    0.26759200    0.37872500
Se   21.82235000   21.90998000   15.95849000      0.217076    0.61312000    0.38427900
Se    4.12596000    1.75463000    3.41149000      0.473699   -0.76318300   -0.16953300
Se    4.17170000    1.38737000   13.14787000      0.594680    0.25709200    0.21073800
Se    4.01062000    7.34376000    3.30461000      0.793780    0.35721200   -0.61794300
Se    4.62065000    7.26567000   13.84552000     -0.410896    0.18077500   -0.58770200
Se    4.33079000   12.83010000    3.44530000      0.734839    1.65854800    0.16881900
Se    4.58685000   13.18666000   13.55501000      0.526959   -0.76286700   -0.43689300
Se    4.69876000   19.08912000    3.67417000     -0.129489   -0.41276900    0.04708400
Se    4.40619000   18.97783000   13.24546000      0.466836    0.53079200   -0.22080100
Se    9.83120000    1.68865000    3.69727000      0.213806    0.56080700    0.19052000
Se   10.31028000    1.54762000   13.26305000     -0.492874    0.09222000    0.49218400
Se   10.01111000    7.03295000    4.03589000     -0.061975    0.54837800   -0.49260700
Se    9.74436000    7.21600000   13.47063000      0.423952   -0.03060200    0.05867800
Se    9.81717000   13.13275000    3.95383000      0.522845    0.64929700   -0.51685000
Se   10.50726000   12.93015000   13.61742000     -0.554908    0.60379200   -0.03604600
Se    9.88487000   18.74506000    3.63970000      0.103115    0.14324800    0.13592700
Se   10.02519000   18.80681000   13.21154000      1.051753    0.41006900   -0.25419700
Se   15.88148000    1.49265000    3.61939000     -0.429678   -0.39818800    0.43192900
Se   15.82915000    1.37457000   13.46709000      0.738936   -0.16154600   -0.53195700
Se   15.97724000    7.06262000    3.82818000     -0.576007    0.34284500    0.48657900
Se   15.45443000    7.62099000   13.23778000      0.301500    0.20736800    0.34098400
Se   16.20688000   12.99232000    3.94938000      0.296368   -0.24678700   -0.41679200
Se   16.49062000   13.17813000   13.17547000     -0.668764    0.03655400    0.23830000
Se   15.78276000   18.82499000    3.79735000      0.413013    0.61508800   -0.38596300
Se   16.40286000   18.62837000   13.75085000     -1.034557    1.18238800    0.18163600
Se   22.03827000    1.27508000    3.74193000     -1.072952   -0.29628800    0.66204400
Se   21.80327000    1.35882000   13.31628000     -0.475102   -0.47266700    0.26718400
Se   21.72031000    7.37489000    3.85707000     -0.081386   -0.46690100   -0.37245100
Se   21.75026000    7.13447000   13.55139000     -0.392344   -0.09835600    0.26709600
Se   22.27981000   12.94025000    3.91553000     -0.455987   -0.18149100   -0.47948900
Se   22.24726000   12.61042000   13.21675000      0.039380    0.85940200   -0.03051400
Se   22.09754000   18.74816000    3.93510000      0.065497   -0.45740500   -0.43038100
Se   22.33704000   18.53125000   13.57976000     -0.552109    0.49986500    0.10214900
Se    1.17553000    4.39111000    3.80902000      0.279624    0.17397700   -0.06144600
Se    1.32968000    4.24905000   13.47403000     -0.234155   -0.31864300   -0.47166700
Se    1.18945000   10.19522000    3.85274000     -0.251667   -0.02412400   -0.60112400
Se    1.47808000   10.15002000   13.01663000      0.648347   -0.40070700    1.31837400
Se    1.83065000   15.99309000    3.39306000     -0.663401    0.22128200   -0.64514700
Se    1.78323000   15.86245000   13.52104000     -0.904674    0.23084900   -1.14625200
Se    1.46217000   21.66333000    3.29750000     -0.274957    0.61864100   -0.19755300
Se    1.60654000   21.73945000   13.37959000     -0.439744   -0.50173700   -0.51945800
Se    7.12920000    4.64221000    3.71048000      0.058315    1.80902000    0.09270800
Se    7.41504000    4.43900000   13.13142000     -0.260930   -0.08960000    0.51625000
Se    7.09574000   10.11041000    3.71450000     -0.337499    0.29595000   -0.72601700
Se    7.10361000   10.50269000   13.20372000      0.106007   -0.88078400    0.06776700
Se    7.06809000   16.39310000    3.86943000      0.632190   -0.34827900    0.18305200
Se    7.63863000   15.91385000   12.93663000     -0.100672   -0.26860300    0.37331800
Se    7.51578000   22.06502000    3.20088000      0.487695    1.10175600    1.03609100
Se    7.30241000   21.99951000   13.33805000      0.061968    0.36224200   -0.03619900
Se   13.04394000    4.37635000    3.65395000      0.458122    1.26293600    0.41645800
Se   13.13669000    4.50961000   14.00817000     -0.548686   -0.43213000   -1.16190400
Se   12.90012000    9.86762000    4.04210000     -1.124559    0.87046300   -1.26614100
Se   12.72634000   10.26846000   13.48599000     -0.290484    1.65250600    0.14693900
Se   13.23937000   15.80735000    3.60932000     -0.341506   -0.18803600   -0.02924600
Se   13.14528000   15.95566000   13.46829000      0.076603   -0.12872300   -0.47749700
Se   12.98954000   21.68432000    3.31110000     -0.104850   -0.13273100    0.69043400
Se   13.43391000   21.93530000   13.25389000     -0.970676   -0.66870100   -0.32336200
Se   19.17840000    4.10663000    3.52351000     -0.285639   -0.04537000    0.24420700
Se   18.73973000    4.25003000   13.17111000      0.588391   -0.25197400    0.69489300
Se   18.69866000   10.29968000    4.13845000     -0.306410   -1.00687400   -0.79769500
Se   18.69152000   10.44100000   13.67695000      0.294462   -0.40407100    0.06354800
Se   19.10337000   15.96961000    3.59707000      0.775572   -0.58918400    0.34038500
Se   19.53465000   16.10983000   13.44350000     -0.300450   -1.05793300   -0.37186700
Se   18.95099000   21.33613000    3.65997000     -0.063310    0.45727900   -0.19104900
Se   19.38549000   21.53277000   13.63317000     -0.193632    0.19580500   -0.39150500
