384
23.23808000 23.23808000 19.51320000
Ge    5.72793000    5.76345000    9.96029000     -0.685502    0.43309900   -0.96691700
Ge    5.85555000    5.87249000    0.04736000      0.297518    1.23204300   -0.26555500
Ge    5.67036000   11.56712000    9.55571000     -0.535271   -0.78305200    0.18665200
Ge    5.63529000   12.03527000   19.50382000     -0.907860   -1.24875000   -0.69221900
Ge    5.91576000   17.67687000    9.77291000     -0.107948   -0.52580500   -0.19901400
Ge    6.17982000   17.95759000   19.25153000      0.616677    0.43339000    0.81193100
Ge    6.02233000    0.11556000    9.50426000     -0.351723    0.97665300    0.39077400
Ge    5.66659000    0.18183000    0.27907000      1.229460    1.30725900   -1.34558400
Ge   11.58460000    5.90190000    9.89956000      0.430654   -1.37826500    0.80030100
Ge   11.62967000    5.81152000    0.15335000     -0.660347    0.80745600   -0.13836300
Ge   11.70018000   11.27036000    9.87373000     -0.323310   -0.21516300   -0.42358200
Ge   11.56622000   11.59942000   19.50090000     -1.309295    0.19807900   -0.00572100
Ge   11.89889000   17.43993000    9.87761000     -0.817907    0.99157600    0.30462500
Ge   11.78809000   17.18459000    0.18707000     -0.162273   -0.13320100   -0.80521400
Ge   11.59439000   23.16878000    9.81976000      0.285654    0.38798500   -0.11740900
Ge   11.61895000    0.02877000    0.16386000      0.090270   -0.38926000   -0.95889300
Ge   17.09162000    6.05755000   10.04546000      1.294780   -0.63487500    0.31312900
Ge   17.05964000    5.91868000   19.50418000     -0.162046    0.08458500   -0.17343600
Ge   17.45865000   11.99945000    9.77342000     -0.473121   -1.51675200   -0.29581500
Ge   17.70122000   11.45528000    0.22039000     -0.086928    0.40258300    0.39341700
Ge   17.40845000   17.55909000    9.76411000      0.802286    0.26946500    0.64132100
Ge   17.28842000   17.10282000   19.09683000      0.103092    0.67257800    0.53686600
Ge   17.30312000   23.15342000    9.64780000     -0.130471   -0.81435900   -0.19655500
Ge   17.29601000   23.18728000   19.36829000     -0.537161   -1.44921700   -0.74026900
Ge    0.05845000    5.85176000    9.74245000      0.871095   -0.29299400    0.03144400
Ge   22.94933000    5.70709000   19.50715000      1.036350   -0.35231800    0.32513300
Ge   23.08603000   11.68675000    9.77738000     -0.564738   -0.80041700   -0.10218500
Ge    0.06513000   11.58820000    0.02441000     -0.064681    0.85140900   -0.67436100
Ge   23.13343000   17.20161000    9.81890000      1.502185    1.38765100   -1.07610900
Ge   23.20097000   17.37858000   19.41147000     -0.041144   -0.97597500   -0.40939200
Ge    0.11375000   23.13194000    9.65669000     -0.197361   -0.79959300    0.26472600
Ge    0.20171000   22.99411000    0.09078000     -0.587303    0.47474800    0.27192600
Ge    2.98201000    5.49938000    7.37200000      0.158737    1.83404100    0.09403400
Ge    2.85124000    5.60770000   17.13599000      0.334125   -0.17306600    0.39895700
Ge    2.68502000   11.70151000    7.21320000     -0.225686    0.71376900   -0.88191200
Ge    2.96899000   11.56978000   16.98333000      0.086104    0.61800000   -0.36068600
Ge    3.07503000   17.50944000    7.27379000     -0.224222   -1.41143900    0.63536200
Ge    2.93737000   17.48501000   17.26701000     -1.663951    0.62521600   -0.07680400
Ge    3.03892000   23.19995000    7.22534000     -1.260408    0.49995600   -1.13021600
Ge    2.94373000    0.08026000   17.25521000      0.122031    0.33946900   -1.79465200
Ge    8.35460000    6.01119000    7.54768000     -0.904928   -0.68051200   -0.39903600
Ge    8.61497000    6.19818000   17.16207000      0.730304   -0.97671600   -1.02225800
Ge    8.66036000   11.84184000    7.26569000      0.350050   -1.12809200    0.08115300
Ge    8.49054000   11.88017000   17.12949000      0.813466   -0.99038500   -0.64934200
Ge    9.07336000   17.84613000    7.61134000      0.040206   -0.68515700   -0.74264800
Ge    8.71604000   17.91760000   16.75568000      0.928728   -1.53043900    0.67364400
Ge    8.97487000    0.23094000    7.12399000     -1.083474    0.09617600    0.10642900
Ge    8.70549000   22.94075000   17.17441000     -1.437764    1.88499100    0.50295800
Ge   14.34021000    5.55904000    7.40863000      0.626045    0.43297200   -0.41287500
Ge   14.47751000    5.90112000   17.09674000     -1.732212   -1.02891400   -0.33619200
Ge   14.45829000   11.43721000    7.26550000      0.427744   -0.14364200    0.52716300
Ge   14.52127000   11.59930000   17.14298000      0.620659    1.12183400    0.14935300
Ge   14.75405000   17.80753000    7.43454000      0.630996   -0.33182300   -0.68887200
Ge   14.45697000   17.02501000   16.94410000      0.819116    0.70413500    0.13577500
Ge   14.25876000   23.03572000    7.21283000     -0.054173    0.43917100   -0.13818400
Ge   14.34994000   23.10881000   16.92565000      0.419276   -0.07801800    0.51994300
Ge   20.38779000    5.56786000    7.44763000     -0.757734    1.42667700   -0.00714500
Ge   20.21919000    5.61361000   16.99179000     -0.672389    0.50603200   -0.23201800
Ge   20.29622000   11.88788000    7.39197000      1.578856    0.43277900   -1.35559100
Ge   20.43429000   11.56307000   17.04384000      0.096193    1.01057200    0.77637900
Ge   20.36423000   17.03784000    7.51886000     -0.094091    0.41497400   -0.59447600
Ge   20.50875000   17.07929000   16.90352000     -1.581661   -0.99943600   -2.04692200
Ge   20.55348000   22.96747000    7.36318000     -0.306525    0.30180700   -0.14185800
Ge   20.05015000    0.09730000   17.20818000      2.160750   -0.56290600   -0.36251400
Ge    2.92558000    3.00363000    4.95443000     -1.028347    0.57898700   -0.47311800
Ge    2.79684000    2.68174000   14.65167000     -0.105877   -0.00264100   -0.21606900
Ge    2.81934000    8.71956000    4.78277000     -1.156718   -0.46600700   -0.02934100
Ge    2.76011000    8.62037000   14.71813000      1.582535    1.51732400   -1.31849800
Ge    3.15984000   14.54712000    4.67549000      0.076090   -0.77331400    1.01730500
Ge    3.18742000   14.58187000   14.76981000     -0.683054   -0.89554800    0.72634300
Ge    2.81440000   20.33304000    4.56935000      0.220594   -1.18186800    1.47427700
Ge    2.97833000   20.26605000   14.71096000      0.207325    0.62481500   -1.00489600
Ge    8.42689000    3.27684000    5.06776000      0.845815   -1.31856700   -0.97075500
Ge    8.72034000    2.92502000   14.52138000      0.222941    0.31743400    1.33126600
Ge    8.42801000    8.60016000    5.01112000      0.644226    0.27229300   -0.14140400
Ge    8.40476000    8.81586000   14.46840000     -0.093093    1.51836200    0.95690200
Ge    8.66337000   14.86497000    5.08386000     -0.436060    0.67468400    0.70897600
Ge    8.96128000   14.57546000   14.50158000     -0.102565    0.42815900    0.22427300
Ge    8.67250000   20.59024000    4.70065000      1.069760   -0.23605400    0.26500700
Ge    8.65189000   20.35938000   14.37485000     -0.176240    0.13494300    0.18003900
Ge   14.54477000    3.04221000    4.95331000     -0.936017   -1.29213400   -0.56124800
Ge   14.62745000    2.85101000   14.82667000     -0.311390    0.68181800    0.12143700
Ge   14.34079000    8.45961000    5.12559000      0.689584   -0.85293600   -0.63097800
Ge   14.00507000    8.84483000   14.74212000      1.306144   -1.52137100    1.35657200
Ge   14.64560000   14.43981000    4.96095000      0.480428    0.80547100    0.40708900
Ge   14.65539000   14.36183000   14.35443000      1.033414    0.45593500    0.61524600
Ge   14.43417000   20.58903000    4.88587000     -0.154362   -1.36270800   -0.55871900
Ge   14.61978000   20.39977000   14.65957000      1.913372   -0.67290600    0.02552000
Ge   20.53673000    2.76041000    5.04106000      0.249590   -0.27688100   -1.02654900
Ge   20.26616000    2.82237000   14.46563000      0.137298    0.68564600   -0.44162800
Ge   20.31147000    8.83259000    5.10517000     -0.098011   -0.49351200    0.46907900
Ge   20.25928000    8.69855000   14.62097000     -0.543571    0.10598700    0.37107800
Ge   20.51067000   14.32747000    4.80777000      0.085331    1.21546100    0.68140600
Ge   20.96558000   14.27950000   14.37673000     -1.838232   -0.52192700    0.12263000
Ge   20.19784000   19.86507000    4.94459000      1.305952    1.06152000   -0.35540800
Ge   20.94188000   20.06014000   14.85070000     -1.124205   -0.30224800   -0.08163200
Ge    5.84551000    3.09981000    2.54354000     -0.005581   -1.16419700   -0.55774200
Ge    5.76387000    3.03595000   12.08292000      0.210842   -0.94582000    0.24270600
Ge    5.74139000    8.81092000    2.07900000      0.122589   -0.58204700    0.95784600
Ge    5.57931000    8.84458000   12.27003000      0.059470    0.09663700   -0.52893600
Ge    5.93821000   14.75164000    2.61949000     -0.979959   -0.64694500   -1.52534200
Ge    5.98106000   14.49826000   12.05260000     -1.310070    0.88213900    0.54254400
Ge    5.91430000   20.66481000    2.45556000     -0.279176   -0.53348400   -0.74495100
Ge    5.84188000   20.73424000   11.89966000     -1.119389   -0.58765700    0.46185200
Ge   11.63347000    2.93028000    2.58788000     -1.009239   -1.10428200   -1.09230900
Ge   11.70975000    3.20613000   12.30593000      1.350745   -0.61294300    0.17222700
Ge   11.28246000    8.57150000    2.60401000      0.713045    0.23627400    0.49154600
Ge   11.29759000    8.73331000   12.50391000      0.172455   -1.27147900   -0.96286900
Ge   11.49759000   14.38794000    2.58959000     -0.471653    0.46677600   -0.14272600
Ge   11.69957000   14.45120000   12.14531000     -0.000383    0.13572300    0.56050500
Ge   11.61627000   19.88190000    2.50439000     -0.272114    1.69711700    0.00973700
Ge   11.82563000   20.32292000   12.19229000     -1.321608    1.05490300    0.84725300
Ge   17.35019000    2.83755000    2.49578000      1.492467   -0.15489100   -0.70406300
Ge   17.29446000    2.69278000   12.03584000     -0.048761    0.26835100    0.56355300
Ge   17.21364000    8.70496000    2.63874000      0.532262    0.27634700    0.46210600
Ge   17.10572000    9.29620000   12.41560000     -1.088447   -1.01590400   -0.49501100
Ge   17.87393000   14.33111000    2.60542000     -1.283673   -0.60371000   -0.81684200
Ge   17.76849000   14.86542000   12.14110000      0.494393   -0.09266500    0.44844600
Ge   17.40981000   20.07100000    2.32319000     -0.812827   -0.10827900   -0.21156100
Ge   17.68386000   20.18950000   12.59515000      0.971864    0.02656200   -0.83837400
Ge   23.02593000    2.87889000    2.47490000      0.386188    0.70662000   -0.26199900
Ge    0.05362000    2.73584000   12.04132000     -0.278608    0.80656500    0.01916100
Ge   23.07215000    8.69012000    2.41928000      0.255232    0.34889900    0.30765800
Ge   23.14772000    8.58387000   12.33996000     -0.447879    0.34974100   -1.39821800
Ge    0.21333000   14.41603000    2.38706000      0.037347    0.87764600   -0.18821300
Ge    0.58536000   14.20785000   12.12581000     -0.369697    0.20198600    0.77938700
Ge   23.08430000   20.22250000    2.28312000     -0.471012   -0.48273100    0.30970800
Ge    0.26006000   20.06206000   12.13323000      0.812313    0.72182700    0.40634100
Se    1.38117000    1.48325000    1.35624000      0.200391   -0.52210900   -0.45887200
Se    1.60000000    1.32732000   10.85025000     -0.090049   -0.03059500    0.40290600
Se    1.34937000    7.10836000    1.27658000     -1.083297    0.06103300   -0.18510800
Se    1.47300000    7.25982000   11.08766000     -0.174657   -0.20327300   -0.09777500
Se    1.67703000   13.09314000    1.02893000     -0.449647   -0.16319000    0.23046900
Se    1.78650000   12.75096000   10.71917000      0.077522    0.07246900    0.07996700
Se    1.31950000   18.83866000    1.03857000      0.821317    0.55705000    0.41715000
Se    1.59992000   18.29486000   11.18582000     -0.271673    0.45366000   -0.42882700
Se    7.43511000    1.56801000    1.40703000     -1.243896   -0.02790300   -0.12328000
Se    7.48225000    1.77291000   10.62765000     -1.360786   -0.36022400    0.31538400
Se    7.49507000    7.36306000    1.18990000     -1.487498    0.22609500   -0.22478800
Se    7.15912000    7.41246000   10.97862000     -0.338949    0.11392500    0.34400200
Se    7.25094000   13.12255000    1.17975000      0.619011    0.85514400    0.84129600
Se    7.14912000   13.05562000   10.72681000      0.682171   -0.67761400   -0.49357500
Se    7.50337000   19.65444000    0.99485000     -0.220113   -1.32921400   -0.23815100
Se    7.35369000   19.32059000   10.64420000     -0.174748    0.38363500    0.59035600
Se   13.29341000    1.14825000    1.37410000     -0.902376    1.15993000    0.41464800
Se   13.32371000    1.46680000   10.90621000     -1.527849    0.05984700    0.29771300
Se   12.95618000    7.48484000    1.31239000     -0.176863   -0.34845900   -0.06285100
Se   12.99742000    7.40946000   11.32668000     -0.601091   -0.56091700   -0.51332500
Se   12.93766000   12.92654000    1.32508000      0.639592    0.49259900    0.27631600
Se   13.07600000   12.96764000   10.97135000      0.468726   -0.48044200   -0.30324400
Se   13.24015000   18.42392000    1.78553000      0.282826   -0.65603400   -1.23946600
Se   13.28367000   19.09021000   10.95449000      1.070025   -0.82660800   -0.40517700
Se   18.69463000    1.01320000    1.26144000      0.922975    1.56744600    1.02993300
Se   18.78268000    1.39370000   10.74202000      0.379225    0.06753300    0.01466500
Se   18.57374000    7.25474000    1.21324000      0.398021    0.50654500    0.33053000
Se   18.47571000    7.74281000   11.26389000      0.194518   -1.00500900   -0.53581800
Se   19.35600000   12.73602000    1.58356000     -0.887895    0.10900600   -0.45682500
Se   19.06515000   13.07721000   11.05846000      0.196926    0.58966700    0.23699500
Se   18.77550000   18.67871000    0.89963000     -0.212170   -0.16085400    0.01018600
Se   19.13407000   18.70433000   11.07910000     -0.969854    0.28225900    0.14783800
Se    4.41546000    4.51103000    1.31453000     -0.455435    0.00730500   -0.24213000
Se    4.07176000    4.39795000   11.18353000      0.668709    0.48713000   -0.45261100
Se    4.19271000   10.13137000    0.82607000      0.606149    0.57196300    0.07644800
Se    3.91375000   10.08353000   10.97454000      1.396972    0.45697100   -0.36258500
Se    4.76918000   16.55908000    0.92987000     -0.482821   -1.37591700    1.40548300
Se    4.50334000   16.15428000   11.00221000      0.126635   -0.13928200    0.07100000
Se    4.30222000   21.80629000    1.15154000     -1.074565   -0.24907000    0.46325700
Se    4.24788000   22.28954000   10.77201000      1.240017   -0.75638600    0.29008400
Se   10.01774000    4.45689000    1.28950000      1.239318   -0.69659300    0.37021600
Se   10.02115000    4.31741000   11.14092000      0.780168    1.06190700   -0.71076300
Se   10.11151000   10.27818000    1.42833000     -0.479747    0.25806200   -0.12109200
Se    9.97276000    9.96592000   11.03282000      0.265266    0.67333700   -0.39698100
Se   10.01687000   15.87406000    1.20028000      0.736965   -0.18497100    0.39678800
Se   10.32880000   15.94352000   10.90946000     -0.163086    0.27801000   -0.02993300
Se   10.33262000   21.58351000    1.23774000     -0.203278   -0.33126000    0.00339900
Se   10.09101000   21.71172000   11.12862000      0.958493    0.57033500   -0.14916100
Se   15.90489000    4.37356000    1.43135000     -0.303115   -0.11508900   -0.31179400
Se   15.77483000    4.25471000   11.10516000      0.046877    0.34723500   -0.30113800
Se   15.95000000   10.44485000    1.56514000      0.333521   -0.43460100   -0.25721000
Se   15.81996000   10.43404000   10.74354000      0.629526    0.13973400    0.47284000
Se   16.13667000   15.55652000    1.39371000      0.555973    0.34428200   -0.80599700
Se   15.99404000   16.11362000   11.11473000      0.317623   -0.02355900   -0.23282100
Se   15.95027000   21.75756000    1.20847000     -0.210318   -0.67163000    0.19314000
Se   16.16546000   21.68566000   11.26359000      0.271610   -0.01122300   -0.00163900
Se   21.45141000    4.13313000    1.03451000      0.373832    0.13718300    0.42429300
Se   21.84985000    4.26131000   10.68203000     -0.133320   -0.71049400    0.83713800
Se   21.67665000   10.38258000    1.21103000      0.504685   -0.94684700    0.34259000
Se   21.56510000    9.86304000   10.88816000      1.027471    0.46803000    0.03801100
Se   21.83726000   15.95936000    1.21528000      0.227540   -0.71673500    0.54657000
Se   22.16673000   15.54285000   11.00991000     -1.438461   -0.94173400    0.85906200
Se   21.67350000   21.58279000    0.94095000      0.225055    0.04867400    0.19635700
Se   21.97612000   21.18960000   10.68914000      0.436467    0.93644800   -0.30230000
Se    1.61947000    4.13162000    8.82442000     -0.167197    0.83974200   -0.51014400
Se    1.31669000    4.05215000   18.60047000      0.408595    1.41646700   -0.76953600
Se    1.18851000   10.25997000    8.31993000      0.045009   -0.32295900    0.33119900
Se    1.37415000   10.21067000   18.01393000     -0.456882   -0.69689300    0.67135800
Se    1.37366000   15.90977000    8.37628000      0.483186    0.75381400   -0.04211400
Se    1.63561000   15.87786000   18.41183000     -0.465308    0.35756600    0.08905700
Se    1.64051000   21.69559000    8.34082000     -0.877414   -0.08418600    0.42346100
Se    1.59652000   21.71316000   18.21804000     -0.039742   -0.97233600    0.54161700
Se    7.19284000    4.14364000    8.65512000     -0.174367    1.48539300    0.44523800
Se    7.41912000    4.54760000   18.42980000     -0.041831   -0.66480100   -0.50475500
Se    7.39703000   10.19357000    8.44849000     -0.738752    0.26184500    0.37649500
Se    6.82631000   10.50799000   17.99309000     -0.359868   -0.10010800    0.66510200
Se    7.75253000   16.31356000    8.91049000     -0.580302    0.16207300   -0.42416400
Se    7.24860000   16.34288000   17.96604000      0.932985    0.10692900   -0.31158500
Se    7.42810000   21.93208000    8.24549000      0.097507   -0.15876800   -0.16835500
Se    6.91815000   21.82819000   18.37085000      0.255185    0.39886900   -0.41627500
Se   13.00450000    4.19055000    8.64268000     -1.168726   -0.22200000    0.95320400
Se   13.20464000    4.43750000   18.63376000      0.322914   -0.48458500   -0.63728500
Se   13.20778000    9.80169000    8.52306000     -0.556227    0.65321800    0.30125200
Se   12.77946000   10.30142000   17.99564000     -0.270388   -0.85645500    0.27694100
Se   13.17962000   16.25832000    8.38976000      0.657728   -0.86344500   -0.19732300
Se   13.20842000   15.48815000   18.48245000      0.043728    1.20463900   -0.17354100
Se   12.38434000   21.65564000    8.05855000      1.270104    0.12043600    0.52977500
Se   12.82078000   21.65477000   18.11600000      0.161057    0.67964800    0.22823600
Se   18.64933000    4.53393000    8.74120000     -0.293386   -0.07664100    0.40643700
Se   18.48111000    4.41475000   18.20768000      0.346540    0.04138100    0.25114100
Se   18.91616000   10.48805000    8.42644000     -1.541438   -1.04915000    1.49694800
Se   19.05769000   10.07143000   18.37913000     -0.136825   -0.49338600   -0.26662600
Se   18.55720000   15.74886000    8.61157000      0.448389    0.83968800   -0.18130800
Se   18.76310000   15.68290000   17.58418000     -0.605203   -0.50543400    1.10628300
Se   18.70577000   21.56427000    8.25662000      0.231876    0.92808800    0.26496900
Se   18.74373000   21.61618000   18.02479000     -0.500547    0.29213700    0.77606100
Se    4.23926000    1.50950000    8.39415000      1.114200    0.50744800    0.49073200
Se    4.36437000    1.66589000   18.25182000      0.317046   -0.21312300    0.74221400
Se    4.35174000    7.44600000    8.49738000     -0.131450   -2.38573200    0.24010000
Se    4.39781000    7.32849000   18.16756000     -0.289431   -1.20966900    0.20167200
Se    4.34657000   13.11231000    8.19995000      0.205657   -0.30876000    0.43457800
Se    3.98915000   13.30581000   18.30121000      0.474013    0.01263300   -0.06693700
Se    4.27852000   19.02406000    8.62329000      0.403815   -0.01449800   -0.03046000
Se    4.31354000   19.04689000   18.27080000      0.099523    1.13335600    0.15406400
Se   10.44857000    1.55627000    8.36619000     -0.197432    0.32866700    0.66817300
Se    9.90998000    1.39057000   18.50958000      0.433147   -0.73226200   -0.06324700
Se   10.18393000    7.14583000    8.54753000     -0.455441    1.46995100   -0.33233300
Se   10.07492000    7.40362000   18.57742000      0.576545    0.16189800    0.11637000
Se   10.23775000   12.83406000    8.72429000      0.507242    0.65187400   -0.01831400
Se    9.91931000   13.15189000   18.44169000      0.956601   -0.06128500    0.58329500
Se   10.40903000   19.20011000    8.97855000      0.189606   -0.33571500   -0.10454800
Se   10.76234000   18.78764000   17.99730000     -0.408244   -0.11610700    0.38932000
Se   15.33890000    1.28313000    8.81099000      1.000245   -0.89398500    0.03992300
Se   15.95213000    1.38656000   18.05002000     -0.445742    0.20228600    0.13431800
Se   15.46434000    7.13974000    8.81025000     -0.315525    0.95051800   -0.49227600
Se   15.46430000    7.47105000   18.34928000      1.675984    0.61060600    1.46537600
Se   15.62459000   13.05477000    8.72451000      0.032386    0.53017400   -0.81049500
Se   16.02603000   12.83826000   18.69069000     -0.360979    0.49319100   -0.43442000
Se   16.24655000   19.36403000    8.64112000     -0.544396   -0.96218300   -0.21242600
Se   15.94021000   18.91259000   17.90903000     -0.335624   -1.95103100    0.44588500
Se   21.74691000    1.42615000    8.81737000     -0.261621   -0.95413000   -0.68043800
Se   22.06747000    1.18144000   18.30906000     -1.043530    0.54858100   -0.45651300
Se   21.79557000    7.23641000    8.58322000     -0.241930   -0.25537600   -0.31027600
Se   21.67883000    7.14725000   18.08997000      0.028419    0.04396200    0.20875500
Se   21.87478000   13.33203000    8.46418000      0.128694   -0.12630100    0.29882300
Se   21.82957000   13.18616000   18.39693000     -0.155353   -1.14018200   -0.36336400
Se   21.75397000   18.83572000    8.49843000     -0.316333   -1.16509800    0.42353000
Se   21.53410000   18.57326000   18.13359000      1.530888    1.78795300    1.56464200
Se    1.45987000    1.47152000    5.91785000      0.272866   -0.64787100    0.92068800
Se    1.25363000    1.48624000   16.02160000      0.785892   -0.41068000    0.12830600
Se    1.47152000    6.93829000    5.99540000      0.487105    0.21059500    0.01343200
Se    1.43306000    7.26938000   15.91471000     -1.240013   -1.20288000    0.93197900
Se    1.35421000   13.51113000    5.94073000      1.374152   -1.05927300    0.51571700
Se    1.49502000   13.13457000   15.80754000      1.060262   -0.11220100   -0.01781200
Se    1.49386000   18.69675000    6.12364000     -0.098240    1.12691000   -1.31530500
Se    1.44622000   19.18034000   16.03394000     -0.073788   -1.21965000    0.88833900
Se    7.17749000    1.70831000    6.24913000      0.114562   -0.72050400    0.23808900
Se    7.19975000    1.46391000   16.06941000      1.297330    0.09324500   -0.56758900
Se    6.73887000    7.52425000    6.28407000      0.829656   -0.53461900    0.49767500
Se    6.97164000    7.46116000   15.83280000      0.223909   -0.31075200    0.42011900
Se    7.12494000   13.38366000    6.40238000      0.267627    0.72868900   -0.52554100
Se    7.34387000   13.65332000   16.11579000     -0.065260    0.38091200   -0.87516000
Se    7.55194000   19.12689000    6.22783000     -0.750497   -0.18296600    0.20592400
Se    7.02082000   18.99123000   15.55632000      0.213338    0.58689900   -0.30614900
Se   12.96602000    1.52878000    6.05091000      0.404798   -0.04983200   -0.26147100
Se   12.95400000    1.29008000   15.61906000      0.324178    0.30253500    0.41840700
Se   12.81353000    6.89876000    6.06819000      0.700407   -0.14687500    0.40692900
Se   12.69068000    7.09456000   15.98637000      0.360367    0.65624200   -0.43147000
Se   13.15184000   13.11472000    6.27454000     -0.754090    0.25721300   -0.16443700
Se   13.18599000   13.06419000   15.69687000      0.241422   -0.48582200    0.27453900
Se   13.08140000   18.83315000    6.11642000      0.309766    0.97926900   -0.45920300
Se   13.21603000   18.57729000   15.38534000     -0.317375    0.01613300    0.40314700
Se   19.07630000    1.44618000    6.22169000     -0.233775   -1.02931800    0.67474100
Se   18.81983000    1.63690000   15.92401000     -0.707058    0.12431400   -0.10097900
Se   18.90820000    7.16855000    6.22289000      0.623077   -0.21491800    0.19685100
Se   18.71730000    7.26512000   15.88255000      0.784033   -0.05887400   -0.18294900
Se   18.77957000   13.23057000    6.07583000      0.730394   -0.21839400   -0.09604500
Se   19.05353000   12.91540000   15.69052000      0.769132    0.71741900   -0.40028100
Se   18.91732000   18.19750000    5.76104000     -0.492318   -0.66545500    1.35955700
Se   19.03185000   18.91646000   15.98007000      1.711230   -0.64978800   -0.17807400
Se    4.54213000    4.41702000    5.88064000     -0.119232    0.25983400    0.54470300
Se    4.33780000    4.11833000   15.74819000     -0.308783    0.74638500    0.46923000
Se    4.17290000   10.19151000    5.97690000      0.374916    0.58971600    0.45761100
Se    4.45967000   10.06542000   15.79600000     -0.883597    0.21205100    0.13564200
Se    4.59623000   15.95160000    6.26066000     -0.300486   -0.07977400   -0.45419800
Se    4.26556000   16.44703000   15.76199000      1.560596   -0.62527100   -0.79042200
Se    4.20552000   21.95726000    5.61460000      0.886081   -0.19265600    0.08565100
Se    4.34043000   21.96586000   15.57492000      0.114463    0.79062800    1.02072000
Se    9.86416000    4.73794000    6.09704000      0.528429    0.30467800    0.60127900
Se   10.34698000    4.68252000   15.76621000     -1.925456   -0.25213100    0.15639300
Se   10.02733000   10.29189000    5.94732000     -0.669771   -0.27301200   -0.01589800
Se    9.93192000   10.26715000   15.91222000     -0.838731   -0.09746400   -0.40508400
Se   10.37684000   16.20188000    6.25757000     -0.550825   -0.06871200    0.11982800
Se   10.19984000   16.52283000   15.28907000     -0.287487   -0.48533900    0.49547200
Se   10.29799000   22.14562000    5.69677000     -0.275882   -0.77636800   -0.49999600
Se   10.12433000   21.73123000   15.83353000      0.521437   -0.96045900   -0.68713700
Se   15.99999000    4.07124000    6.35828000      0.587003    1.08420300    0.60882200
Se   16.04880000    4.56710000   16.01585000     -0.119252   -0.91081900   -0.50564600
Se   15.89532000   10.11910000    5.87224000      0.079284    0.02916400    0.59385500
Se   15.74029000    9.76018000   16.39204000     -0.314321   -0.08781500   -1.44068300
Se   16.12287000   16.17072000    6.05886000     -0.868595   -0.17065700    0.16410500
Se   16.20336000   15.66472000   15.84178000     -1.275759   -0.00001400   -0.32050200
Se   16.05943000   21.97086000    5.83355000     -0.548988    0.36308100    0.90191600
Se   16.20957000   22.07960000   15.78073000     -1.409496   -1.16839900   -0.25486600
Se   21.94127000    4.27148000    6.22634000      0.239839    0.00203500   -0.04971300
Se   21.73931000    4.26280000   15.71302000     -0.166258    0.10646400    0.13541200
Se   21.85896000   10.12645000    6.42496000     -0.932512    0.63719500   -0.13708000
Se   21.86557000   10.19400000   15.76560000     -0.102216   -0.71802500   -0.18148100
Se   22.00327000   15.71211000    6.35527000     -0.786011   -0.41633500   -0.52044100
Se   22.19082000   15.57488000   15.88079000      0.202370    0.73487900    0.32641400
Se   21.91917000   21.30632000    5.98338000     -1.069158    0.53962700    0.59558900
Se   21.82867000   21.94884000   15.96817000      0.162333    0.42677700    0.38020000
Se    4.09279000    1.72800000    3.42035000      0.733179   -0.88548700   -0.43438400
Se    4.18276000    1.36616000   13.15128000      0.622196    0.41588700    0.11726900
Se    4.01342000    7.36499000    3.26439000      0.665649    0.10119800   -0.29057400
Se    4.59272000    7.26224000   13.80273000     -0.496948    0.25836700   -0.40383000
Se    4.30572000   12.77224000    3.46176000      0.708046    1.97481900    0.27092500
Se    4.60248000   13.15983000   13.57100000      0.537680   -0.34336200   -0.44892700
Se    4.73894000   19.09276000    3.69900000     -0.485318   -0.51707300    0.29815300
Se    4.35813000   18.95851000   13.21878000      0.674883    0.56613300   -0.16736500
Se    9.83500000    1.64665000    3.70545000      0.318183    0.75783000    0.11428200
Se   10.28438000    1.59595000   13.26482000     -0.408734   -0.61373300    0.51072400
Se   10.04723000    7.02246000    3.99787000     -0.246574    0.54059100   -0.26553400
Se    9.73738000    7.20709000   13.45366000      0.655613   -0.11269600   -0.00757600
Se    9.81375000   13.18152000    3.94812000      0.644317   -0.15096700   -0.61964200
Se   10.51327000   12.94400000   13.58475000     -0.689086    0.33528700    0.08217400
Se    9.89662000   18.74960000    3.63433000     -0.039206    0.26638500    0.31758100
Se   10.05022000   18.79547000   13.17667000      0.691067    0.91895300   -0.01862600
Se   15.87434000    1.51196000    3.63848000     -0.634097   -0.63909300    0.56344000
Se   15.84768000    1.35694000   13.49846000      0.709450   -0.17273900   -0.57563800
Se   15.96689000    7.06859000    3.83799000     -0.489218    0.39246900    0.28231900
Se   15.45005000    7.60945000   13.24148000      0.386500    0.36695400    0.32211700
Se   16.19965000   12.97949000    3.96228000      0.385569    0.14733500   -0.49762900
Se   16.44487000   13.14870000   13.16095000     -0.736042    0.14957000    0.32909700
Se   15.83435000   18.86306000    3.82829000      0.283732    0.29171200   -0.48664800
Se   16.42702000   18.63123000   13.81015000     -1.003893    1.17758100    0.02784400
Se   22.01688000    1.23899000    3.75648000     -0.982416   -0.06514600    0.59639500
Se   21.81649000    1.37160000   13.35483000     -0.095189   -0.42178800   -0.16755900
Se   21.66943000    7.32522000    3.83825000      0.016192   -0.01017100   -0.46670600
Se   21.72276000    7.13671000   13.51781000     -0.259242   -0.06853000    0.20883500
Se   22.27427000   12.97620000    3.92308000     -0.540157   -0.18749500   -0.39830100
Se   22.24201000   12.57355000   13.23752000      0.160611    1.15657700   -0.14745100
Se   22.07414000   18.73845000    3.91100000      0.017991   -0.06609600   -0.43577600
Se   22.35196000   18.52834000   13.51683000     -0.780989    0.34892400    0.44541500
Se    1.18033000    4.39986000    3.79209000      0.097011   -0.01479200   -0.09681200
Se    1.34193000    4.21861000   13.47399000     -0.066148   -0.07176700   -0.32068000
Se    1.15710000   10.22858000    3.83179000      0.150722   -0.67547300   -0.31396900
Se    1.47816000   10.16522000   13.03842000      0.655377   -0.37442300    1.30554300
Se    1.85495000   15.99512000    3.41913000     -0.669827    0.29928800   -0.66503300
Se    1.77482000   15.84426000   13.50032000     -0.946303    0.40648800   -1.18116100
Se    1.45489000   21.64970000    3.27997000     -0.360279    1.01309000   -0.33734100
Se    1.63958000   21.77022000   13.38940000     -0.643061   -0.77733100   -0.62352000
Se    7.09713000    4.60864000    3.72144000      0.192805    1.30791900    0.17986700
Se    7.41715000    4.45308000   13.11342000     -0.353089   -0.24396400    0.49832400
Se    7.09077000   10.08174000    3.70168000     -0.206187    0.35592800   -0.45701500
Se    7.08184000   10.50766000   13.20970000      0.268249   -1.00338700    0.21872600
Se    7.06114000   16.40323000    3.87800000      0.757077   -0.68597700    0.26296200
Se    7.64621000   15.91773000   12.92111000      0.108347   -0.23525500    0.51174700
Se    7.53515000   22.09083000    3.24228000      0.299755    0.89311500    0.91223400
Se    7.27536000   22.00935000   13.31633000     -0.046814    0.35925100   -0.10940500
Se   13.03086000    4.40838000    3.65204000      0.436652    0.86340500    0.46984100
Se   13.11649000    4.49752000   14.00857000     -0.572875   -0.30938300   -1.14952400
Se   12.87521000    9.86086000    4.02483000     -0.618496    0.73208100   -0.83234300
Se   12.72749000   10.26288000   13.49624000     -0.254386    1.65630300    0.21549900
Se   13.25671000   15.80775000    3.56808000     -0.455751   -0.19310200    0.04842100
Se   13.12202000   15.95990000   13.41746000      0.058401   -0.32331500   -0.47611200
Se   13.03493000   21.71043000    3.31874000     -0.309956   -0.32226500    0.57952000
Se   13.44396000   21.94476000   13.27323000     -0.851882   -0.88992300   -0.23698000
Se   19.14886000    4.05794000    3.54292000     -0.157208    0.34741400    0.20186300
Se   18.74839000    4.27643000   13.12445000      0.385931   -0.63044500    0.53035000
Se   18.71953000   10.25329000    4.11412000     -0.453412   -0.67077100   -0.90517200
Se   18.69851000   10.42807000   13.69842000      0.527337   -0.10334100    0.40102500
Se   19.13042000   15.95526000    3.59906000      0.708068    0.16243000    0.33363700
Se   19.51718000   16.08020000   13.46832000     -0.322496   -0.72801700   -0.46870000
Se   18.93089000   21.36088000    3.65052000     -0.038565    0.59251100   -0.19851700
Se   19.39517000   21.52494000   13.71517000     -0.415355    0.22266200   -0.65724900
