384
23.23808000 23.23808000 19.51320000
Ge    5.74351000    5.86897000    9.92040000     -0.887375    0.17734900   -0.68334400
Ge    5.89427000    5.80093000    0.09495000      0.904688    1.82717900   -0.81015200
Ge    5.69089000   11.47968000    9.61512000     -1.614365    0.03193200   -0.10693800
Ge    5.74247000   11.94746000   19.45180000     -0.906695   -0.34251200    0.37527400
Ge    5.87035000   17.72064000    9.79703000     -0.127288   -0.22339400   -0.84618300
Ge    6.21852000   17.98929000   19.24243000     -0.638915    0.25178300    1.28856400
Ge    6.01911000    0.19558000    9.45275000     -0.965163    0.44174600    0.49219800
Ge    5.65479000    0.15337000    0.26817000      1.041962    1.12343000   -1.27843700
Ge   11.62150000    5.86897000    9.77626000     -0.492051   -0.64605000    1.42044400
Ge   11.61194000    5.91779000    0.14698000      0.100402   -0.04126400   -0.36784100
Ge   11.70772000   11.26172000    9.87500000     -0.319997    0.17009200   -0.42786000
Ge   11.61609000   11.67837000    0.02800000     -1.290844   -1.15715600   -0.56727900
Ge   11.86529000   17.45114000    9.85984000      0.159342    0.77598900   -0.27298600
Ge   11.77492000   17.26960000    0.18927000      0.151835   -0.43782100   -0.87074900
Ge   11.64694000   23.14678000    9.84751000      0.269181    1.11631500   -0.65120700
Ge   11.65056000    0.02094000    0.15924000      0.017500    0.12690200   -0.48282400
Ge   17.10226000    6.11940000   10.04327000      1.166394   -0.75391000    0.38910400
Ge   17.08340000    6.00506000    0.01022000      0.053751   -0.96422100   -0.21794100
Ge   17.37779000   11.92767000    9.76816000     -0.358615   -0.69091700   -0.16867300
Ge   17.73810000   11.44856000    0.17495000     -0.533478    0.17118600   -0.02238900
Ge   17.40867000   17.49127000    9.72026000      0.418274    1.21840900    1.67068500
Ge   17.29911000   17.14890000   19.05032000     -0.053507    0.01904400    0.73224800
Ge   17.27692000   23.09276000    9.60156000     -0.314010    0.43961400   -0.12044100
Ge   17.26840000   23.15940000   19.36080000      0.428093   -0.15862200    0.18347600
Ge    0.06487000    5.83480000    9.75970000      0.529981   -0.14511100   -0.06845900
Ge   23.00593000    5.71889000    0.06826000      0.544342   -0.04773000   -0.17023700
Ge   23.14904000   11.64489000    9.81127000     -1.569183   -0.55786900   -0.48486700
Ge    0.05440000   11.58943000    0.01224000      0.446761    0.53298200   -0.33030700
Ge   23.13693000   17.28494000    9.83497000      1.289758    0.75835300   -0.50470100
Ge   23.13339000   17.38146000   19.40743000      1.456763   -0.63190600    0.25981300
Ge    0.00995000   23.11703000    9.59690000      1.820357   -0.91949600    1.01780900
Ge    0.15154000   22.99200000    0.10732000     -0.019618    0.87355600   -0.65486800
Ge    3.01612000    5.54568000    7.38303000     -0.359250    1.68955600    0.09346000
Ge    2.86667000    5.58828000   17.19643000      0.521954    0.16988800    0.14032600
Ge    2.64472000   11.77179000    7.11226000      0.518351    0.31908400    0.33726500
Ge    2.98055000   11.61519000   16.97564000     -0.264047   -0.19042400    0.37054000
Ge    2.99596000   17.46584000    7.32893000     -0.576563   -1.01150000    0.14429800
Ge    2.87423000   17.58222000   17.12619000     -0.738525   -0.98499000    0.41146500
Ge    2.99261000   23.17104000    7.16540000     -0.706957    1.21600100   -0.76912200
Ge    2.95127000    0.10413000   17.23359000      0.204027    0.46059100   -1.13477900
Ge    8.38516000    5.99482000    7.43301000     -2.002477   -1.45956500   -0.35667100
Ge    8.63868000    6.21094000   17.13058000      0.429175   -1.82962500   -0.37474600
Ge    8.59565000   11.78010000    7.36915000      0.774661   -0.29629100   -1.22978900
Ge    8.57451000   11.82615000   17.08634000      0.223045   -0.16887700    0.13649500
Ge    9.02088000   17.84320000    7.66929000     -0.193996   -1.67940200   -1.20494900
Ge    8.81302000   17.88092000   16.74585000      0.166397   -0.55581100    0.36909500
Ge    9.07556000    0.34380000    7.17022000     -1.726308   -0.22168200    0.02407100
Ge    8.66326000   22.96414000   17.14038000     -0.388240    1.25963000   -0.05754500
Ge   14.42468000    5.56247000    7.45803000      0.886735    0.03534400   -0.61882700
Ge   14.51185000    5.95066000   17.04291000     -1.582063   -0.52004900   -0.23822100
Ge   14.50562000   11.37936000    7.25151000      0.280281   -0.09722800    0.76451200
Ge   14.57741000   11.61856000   17.12540000     -0.010112    0.63758100    0.74270000
Ge   14.79973000   17.85364000    7.48293000      0.425877   -0.53070900   -1.18930800
Ge   14.40358000   17.05639000   16.94822000      0.729178    0.47978800   -0.18485900
Ge   14.21420000   23.04323000    7.14495000      1.117394   -0.08663400    0.33440200
Ge   14.30993000   23.15437000   16.93340000      0.557002   -0.51762800    0.64582500
Ge   20.38465000    5.50578000    7.47713000     -0.076085    2.22226000   -0.56579800
Ge   20.18300000    5.61510000   16.99867000      0.559327    0.36081200    0.59168500
Ge   20.30736000   11.93884000    7.31804000     -0.035148   -1.17541300    0.02037800
Ge   20.50162000   11.53736000   17.09186000      0.336703    0.21284900    0.37421900
Ge   20.40098000   17.05623000    7.56480000     -0.807302    1.03563700   -0.59966300
Ge   20.46007000   17.09006000   16.90131000     -0.400703   -0.46172100   -0.79375100
Ge   20.59240000   23.03673000    7.40784000     -0.820020   -0.36636300   -0.57020500
Ge   20.06018000    0.04367000   17.21501000      1.265641    0.55870400   -0.96270900
Ge    2.91679000    3.00776000    4.91308000     -1.274592    0.41437900   -0.09688700
Ge    2.85707000    2.66426000   14.70612000      0.159003    0.12978300   -0.89039400
Ge    2.86717000    8.69044000    4.82940000     -2.119409   -0.37115200   -0.60660000
Ge    2.76619000    8.68133000   14.71544000      0.753532    0.19716600   -0.39548900
Ge    3.17531000   14.50264000    4.75036000     -0.458226   -0.77247600   -0.06809100
Ge    3.13890000   14.56329000   14.77185000      0.407091   -0.42872500   -0.00289000
Ge    2.77238000   20.34342000    4.59346000     -0.096222   -1.49353300    0.84979700
Ge    3.04089000   20.30775000   14.68573000     -0.168247    0.59981400   -0.18744400
Ge    8.48121000    3.14989000    5.06930000     -0.123173   -0.03441600   -1.19115200
Ge    8.83295000    2.97945000   14.51990000     -1.347571    1.02664000    1.90210200
Ge    8.52831000    8.60868000    5.03160000     -0.384796   -0.17585900   -0.45091300
Ge    8.47622000    8.85943000   14.51777000     -0.473649    0.67611600    0.27365900
Ge    8.68754000   14.80692000    5.15875000     -0.732850    1.88468900    0.29296300
Ge    9.05868000   14.63723000   14.52839000     -1.163719   -0.11633900    0.17801500
Ge    8.75828000   20.65203000    4.78944000      0.200274   -0.67414200   -0.06358100
Ge    8.58153000   20.42669000   14.34890000      0.513846   -0.36916400   -0.33249700
Ge   14.43910000    2.97802000    4.99218000     -0.043980    0.13784000   -0.95460500
Ge   14.58042000    2.87884000   14.78559000     -0.230218   -0.29512900   -0.05763100
Ge   14.35390000    8.39891000    5.13659000      0.116246    0.50383400   -0.61721700
Ge   14.06286000    8.77204000   14.81956000     -0.118918   -0.09431000    0.27263600
Ge   14.53168000   14.39752000    4.97342000      1.534823    0.92762800   -0.24909700
Ge   14.59084000   14.37951000   14.38223000      0.563906   -0.00152300    0.23896100
Ge   14.43791000   20.51235000    4.86305000      0.524798   -0.01014800    0.10528800
Ge   14.68363000   20.27417000   14.66325000      1.089841    0.46480800    0.02752600
Ge   20.55014000    2.79255000    5.01176000      0.353359   -0.85327200   -0.49987900
Ge   20.24408000    2.82157000   14.30645000     -0.120572    0.87631400    0.95951600
Ge   20.39050000    8.87521000    5.11376000     -0.542231   -1.62646200   -0.02343200
Ge   20.26509000    8.64347000   14.70342000      0.199485    0.55791100    0.10808800
Ge   20.46130000   14.42467000    4.80832000      1.149065    0.11956200    1.02936600
Ge   20.99244000   14.36326000   14.30405000     -0.802724   -1.04378100    1.08806100
Ge   20.24991000   20.04080000    4.94635000     -0.468520   -1.32640400   -0.55120000
Ge   20.97681000   20.04640000   14.87193000     -0.558197   -0.05290800   -0.19639200
Ge    5.77319000    2.98967000    2.43631000      0.125658    0.45194400    0.87820800
Ge    5.78269000    2.99225000   11.98137000     -0.834510    0.14003400    0.83673400
Ge    5.68586000    8.74892000    2.20965000      0.864758    0.23178200   -0.50632300
Ge    5.58905000    8.82973000   12.25374000      0.249488    0.00474100   -0.42783400
Ge    5.87054000   14.74891000    2.57376000     -0.296024   -0.34341100   -0.86074400
Ge    5.94751000   14.58163000   12.08605000     -0.752068   -0.34334200    0.14555200
Ge    6.01234000   20.57086000    2.53045000      0.286462    0.60226800   -1.02076800
Ge    5.70075000   20.71961000   11.90273000     -0.541258   -0.40181200    0.61375100
Ge   11.58263000    2.89126000    2.54931000      0.344136   -0.06184400   -0.38768900
Ge   11.73026000    3.16225000   12.39758000      0.466267    0.24212700   -1.31769600
Ge   11.27721000    8.64486000    2.65819000      1.037383   -0.64644200   -0.57836900
Ge   11.43796000    8.59384000   12.45154000     -0.325041    0.24291400   -0.69965600
Ge   11.43419000   14.41451000    2.67276000      0.562518    0.90658300   -1.24344100
Ge   11.69044000   14.36795000   12.10029000      0.100140    1.30269500    0.53435300
Ge   11.63196000   19.95371000    2.53532000      0.492224    1.12595000   -0.30029200
Ge   11.84578000   20.34416000   12.22323000     -0.351074    0.26811000    0.06323500
Ge   17.33653000    2.84072000    2.51223000      0.474517   -0.38188300   -0.81155100
Ge   17.25235000    2.65062000   12.02160000     -0.046836    0.89082700    1.24163800
Ge   17.17901000    8.74784000    2.57089000      1.169622   -1.17002300    1.05014100
Ge   17.09149000    9.36011000   12.48530000     -0.364030   -1.82011800   -1.18590100
Ge   17.88071000   14.39642000    2.54805000     -1.696171   -1.22080700   -0.76814800
Ge   17.75285000   14.83269000   12.22157000      0.235545   -1.05170300   -0.06399700
Ge   17.38487000   20.09457000    2.28852000     -0.034449   -0.08892500   -0.15750700
Ge   17.71634000   20.17430000   12.56288000      1.056397    0.24451100   -0.48503400
Ge   22.96468000    2.85262000    2.46546000      1.064777   -0.03844700    0.01983000
Ge    0.10539000    2.82422000   12.03393000     -0.505348   -0.69249900   -0.07430800
Ge   23.00256000    8.70653000    2.41669000      0.164831    0.15947000    0.61050600
Ge   23.10140000    8.66449000   12.28708000     -0.163921   -0.21823100   -0.56479400
Ge    0.24171000   14.47580000    2.46167000      0.367893    0.34848900   -0.63115300
Ge    0.56825000   14.18252000   12.13422000     -0.255584   -0.35695200   -0.08146900
Ge   23.08386000   20.19768000    2.25005000      0.003451   -0.67950300    0.18902000
Ge    0.20148000   20.10277000   12.11526000      1.259556    1.23204500    0.02107400
Se    1.41511000    1.43414000    1.29944000     -0.517298   -0.04007700   -0.09356900
Se    1.66267000    1.34161000   10.86727000     -1.178031   -0.40065600   -0.08276100
Se    1.30879000    7.19477000    1.29937000     -0.743732   -0.08979600   -0.19652000
Se    1.46024000    7.28327000   11.13743000     -0.305265   -0.30289300   -0.27878100
Se    1.67266000   13.09572000    1.01816000     -0.661045    0.08786600    0.52632900
Se    1.80634000   12.68066000   10.62968000      0.218043    0.89511300    0.87650800
Se    1.42816000   18.82527000    1.05207000     -0.449806    0.08231900    0.04877200
Se    1.59610000   18.33749000   11.23199000     -0.354442    0.45929300   -0.52844600
Se    7.36310000    1.58151000    1.45589000     -0.470575   -0.66719000   -0.70603700
Se    7.42214000    1.78097000   10.72264000     -0.615739   -0.64164400   -0.21575600
Se    7.48170000    7.36250000    1.22665000     -1.571324    0.01666200   -0.12684300
Se    7.21776000    7.45402000   10.97308000     -0.555202    0.05472100    0.26660000
Se    7.32431000   13.12562000    1.31120000     -0.363570    0.36459200    0.12187800
Se    7.06935000   13.01373000   10.70636000      0.909701    0.34992300    0.34957700
Se    7.54172000   19.55765000    0.97824000      0.101349   -0.86490700    0.10756400
Se    7.25666000   19.38172000   10.65310000      0.097055    0.39735300    0.54113800
Se   13.36178000    1.18588000    1.35310000     -1.371784    0.94076900    0.32253800
Se   13.30742000    1.49444000   10.98862000     -1.286645    0.03041400    0.24993600
Se   13.00082000    7.48809000    1.28284000     -0.774591    0.13337800    0.43114400
Se   13.13038000    7.31342000   11.33784000     -0.615107   -0.70057100   -0.78554200
Se   12.95642000   12.96992000    1.35330000      0.549852    0.91164500    0.78878900
Se   13.08666000   13.04461000   10.92079000      0.849151   -1.28908800   -0.88690600
Se   13.29683000   18.44319000    1.69044000     -0.397145    0.09071500   -0.65675200
Se   13.36203000   18.94937000   10.98146000     -0.074158    0.02827400    0.15619000
Se   18.67935000    1.06625000    1.40660000      0.104852    0.59931500   -0.22096300
Se   18.66975000    1.38513000   10.76506000      1.190212   -0.38781600   -0.53071500
Se   18.63656000    7.32321000    1.14846000      0.084403    0.62264200    0.58043300
Se   18.56194000    7.69545000   11.27556000     -0.683753   -0.40747700   -0.08782600
Se   19.30848000   12.70918000    1.41731000     -0.402330    0.74524100    0.28299600
Se   18.99289000   12.99314000   11.03885000      0.189282    0.94287700    0.46624200
Se   18.78815000   18.69095000    0.85904000     -0.400773   -0.11284500    0.10910100
Se   19.16620000   18.71774000   11.12025000     -1.239430    0.01410900   -0.02093500
Se    4.41348000    4.57211000    1.32334000     -0.980683   -0.50121100    0.12342700
Se    4.03090000    4.51547000   11.12603000      1.580758   -0.02643700   -0.15248300
Se    4.21505000   10.06513000    0.77218000      0.981037    0.59684800    0.30394200
Se    3.96786000   10.11801000   11.00984000      1.070019    0.34956200   -0.47649800
Se    4.75785000   16.53393000    0.95078000     -0.050222   -0.91909100    0.72925200
Se    4.50521000   16.19345000   10.97410000     -0.396763   -0.25942200    0.26066600
Se    4.37408000   21.70053000    1.15943000     -0.750356   -0.22141100    0.59969500
Se    4.19844000   22.23829000   10.76196000      1.314673   -0.16764600   -0.26295300
Se   10.09872000    4.45052000    1.32007000      0.696638   -0.44344700    0.03791400
Se    9.93821000    4.34667000   11.10181000      2.003481    0.72277400   -0.27663100
Se   10.09911000   10.26717000    1.45229000     -0.344827    0.60543000   -0.48340700
Se   10.02621000    9.93245000   10.93986000      0.665095   -0.07045400    0.42736700
Se   10.04569000   15.95921000    1.16789000      0.452955   -0.42863400    0.61376900
Se   10.40281000   15.94508000   10.87742000     -0.908036   -0.04334300    0.05325700
Se   10.34144000   21.57805000    1.22894000     -0.179479   -0.26638500    0.10964200
Se   10.15288000   21.74534000   11.07575000      0.538966    0.26151200    0.11135900
Se   15.88084000    4.39247000    1.40860000      0.157264   -0.04732500   -0.23232000
Se   15.77187000    4.21752000   11.12768000     -0.137095    0.99551000   -0.69754300
Se   16.01642000   10.45744000    1.60574000     -0.438790    0.32530400   -0.71752600
Se   15.81228000   10.33536000   10.70761000      0.259224    0.06800600    0.64680900
Se   16.07148000   15.54552000    1.33998000      1.038174    0.50393000   -0.63416100
Se   16.01337000   16.03566000   11.14462000      0.210207    0.44344300   -0.39155000
Se   15.97905000   21.74402000    1.20606000     -0.754670   -0.60122500    0.20985700
Se   16.21795000   21.70583000   11.17330000     -0.378665   -0.64232200    0.80314300
Se   21.45946000    4.10664000    1.02408000      0.264592    0.24349800    0.28584000
Se   21.80966000    4.22255000   10.75184000      0.192302   -0.16177500    0.36854400
Se   21.66215000   10.42611000    1.23084000      0.271577   -0.93345500    0.37261700
Se   21.57198000    9.90668000   10.89733000      0.773091    0.63863700   -0.16988400
Se   21.87602000   15.87751000    1.19513000     -0.180764   -0.43594300    0.54867200
Se   22.15635000   15.52808000   10.98335000     -1.066280   -0.62618500    0.49068200
Se   21.67354000   21.64107000    0.94868000     -0.205790   -0.45783100    0.42760000
Se   21.94676000   21.21216000   10.56018000      0.260680    0.71002700    0.16703100
Se    1.60322000    4.12717000    8.76317000     -0.254279    0.85413500   -0.25924400
Se    1.40767000    4.11590000   18.63590000      0.175037    0.89985300   -0.52471500
Se    1.23980000   10.29324000    8.37514000      0.322516   -0.54404900   -0.27787500
Se    1.38657000   10.13092000   18.09783000     -0.020624    0.17187400    0.11672200
Se    1.32477000   15.94724000    8.39373000      0.356231    0.41065900    0.05985500
Se    1.62252000   15.88860000   18.42634000     -0.231148    0.94267400   -0.36072000
Se    1.58289000   21.66532000    8.22887000     -1.068881   -0.02256900    0.65894800
Se    1.65522000   21.68132000   18.24702000     -0.209584   -0.24469600    0.66813300
Se    7.13554000    4.20011000    8.66901000     -0.011380    1.65019800    0.07222600
Se    7.39075000    4.48082000   18.38299000      0.224594   -0.08400300   -0.62148100
Se    7.34558000   10.21621000    8.47868000     -0.655489   -1.26753900    0.44073200
Se    6.90153000   10.42370000   18.05603000      0.262081    0.05646400    0.03096200
Se    7.65026000   16.28528000    8.92265000     -0.468697    0.40668900   -0.42911900
Se    7.29963000   16.47020000   17.95485000      0.947816   -1.14721500   -0.48649900
Se    7.35519000   21.97065000    8.16847000      0.579449    0.22152600   -0.09332300
Se    6.90737000   21.80469000   18.35582000      0.409166    0.57024400   -0.27653500
Se   12.98691000    4.25658000    8.65082000     -0.665390   -1.05151600    0.62418200
Se   13.23497000    4.51652000   18.51004000     -0.372669   -0.36702700   -0.07968000
Se   13.08472000    9.75245000    8.55243000      0.117833    0.94413000   -0.18946300
Se   12.81222000   10.25217000   17.99863000     -0.251981    0.13422800    0.64104800
Se   13.23904000   16.29988000    8.30511000     -0.134972   -0.69305900    0.48299700
Se   13.23303000   15.54393000   18.51080000     -0.081305    1.12584700   -0.18952600
Se   12.42270000   21.66108000    8.05550000      0.885422    0.08731300    0.60410300
Se   12.73954000   21.69382000   18.19687000      0.751375    0.46463600   -0.46307900
Se   18.69879000    4.59024000    8.76566000     -0.879182   -0.61924400    0.74748100
Se   18.46234000    4.40761000   18.15808000     -0.135559    0.33488700    0.51159200
Se   18.73027000   10.49953000    8.45035000      0.353682   -0.29395800   -0.09343900
Se   19.04306000    9.98457000   18.35341000     -0.038965   -0.04747200   -0.35707900
Se   18.53095000   15.84962000    8.61046000      1.035109   -0.68298700   -0.70440900
Se   18.77674000   15.61148000   17.58091000     -0.720951   -0.10365100    1.05752300
Se   18.62791000   21.61983000    8.31958000      1.030482    0.50312800   -0.32075300
Se   18.60742000   21.65279000   17.99153000     -0.017880   -0.08492200    0.69321300
Se    4.21877000    1.59021000    8.35275000      0.736588   -0.46749400    0.16600000
Se    4.41038000    1.73752000   18.27879000      0.061039   -0.81883300    0.47726500
Se    4.25086000    7.50758000    8.54812000      0.093954   -2.15126600   -0.01358200
Se    4.42123000    7.28166000   18.19296000     -0.195278   -1.17825000    0.31728000
Se    4.46016000   13.11902000    8.17571000     -0.252497   -1.08485000    0.37956700
Se    3.96023000   13.28303000   18.38044000      1.005353   -0.14855400   -0.05424200
Se    4.11771000   19.06280000    8.59805000      0.936124   -0.31065300    0.35129600
Se    4.34167000   19.03102000   18.20466000      0.124812    1.16740200    0.25385500
Se   10.51836000    1.72264000    8.36154000     -0.069204   -0.41686300    0.92300100
Se    9.96374000    1.38691000   18.52751000      0.067402   -0.79464300   -0.16376500
Se   10.11195000    7.08747000    8.39208000      0.793792    2.02542100    0.50544300
Se   10.07444000    7.43037000   18.49951000      0.568312    0.50902100    0.39143100
Se   10.15218000   12.80231000    8.75900000      0.837821    0.79551600    0.19288700
Se    9.96878000   13.15824000   18.52846000      0.280165   -0.27281600   -0.09826200
Se   10.35684000   19.18702000    8.93724000      0.756269    0.06292900    0.43560900
Se   10.75294000   18.79435000   17.97990000     -0.167825    0.20916400    0.41023300
Se   15.30600000    1.25031000    8.81649000      0.795560   -0.98149000   -0.07064100
Se   15.90041000    1.41516000   18.12928000     -0.438786    0.08114900    0.13808900
Se   15.48894000    7.21442000    8.77059000     -0.020335    0.77954900   -0.18181000
Se   15.45824000    7.48708000   18.48092000      1.160505    0.33408300    0.60304900
Se   15.65957000   13.08181000    8.67845000     -0.344722    0.28404000   -0.77454400
Se   15.95914000   12.86545000   18.78480000     -0.155708    0.13152700   -0.62566900
Se   16.28797000   19.31722000    8.63651000     -0.250588   -0.42762900   -0.02521800
Se   15.79704000   18.86075000   17.99606000     -0.035462   -1.44569300    0.17650900
Se   21.78226000    1.42105000    8.78429000     -0.752386    0.12721200   -0.66502900
Se   21.97003000    1.23265000   18.29705000     -0.514007   -0.01726300   -0.11003900
Se   21.85057000    7.24291000    8.50292000     -0.235914   -0.67239300   -0.05877600
Se   21.77381000    7.17005000   18.09856000     -0.238073   -0.66837100    0.22737800
Se   21.81931000   13.28984000    8.47995000      0.581126   -0.03576400    0.64457000
Se   21.82470000   13.14265000   18.42210000     -0.176088   -0.73573300   -0.43704500
Se   21.72570000   18.85786000    8.58258000     -0.256549   -0.88518300    0.33740200
Se   21.55520000   18.63631000   18.21617000      0.406566    0.83375500    0.40718300
Se    1.37929000    1.46999000    5.93333000      0.970817   -0.32726500    0.52580300
Se    1.28215000    1.46116000   15.97035000      0.520144   -0.49379900    0.37657800
Se    1.40503000    6.95366000    6.02060000      1.054967    0.25608800   -0.07359100
Se    1.40960000    7.19065000   15.96298000     -0.256815   -0.29692600    0.13520200
Se    1.39222000   13.47986000    6.00546000      0.361298   -0.57756900    0.18061100
Se    1.55073000   13.15974000   15.82842000      0.095462   -0.26353700    0.04514000
Se    1.41401000   18.69465000    6.15105000      0.268896    0.89005800   -1.23370600
Se    1.43301000   19.14160000   16.04097000      0.074105   -0.12934900   -0.13891700
Se    7.14372000    1.65214000    6.26091000      0.597603   -0.50987200    0.26502500
Se    7.17377000    1.39307000   16.02762000      1.417552    0.37420200   -0.55011600
Se    6.73374000    7.48480000    6.29631000      1.365911   -0.22979900    0.16726000
Se    7.04106000    7.45223000   15.89186000     -0.076162    0.04528200   -0.10544100
Se    7.15899000   13.40444000    6.32181000     -0.034067   -0.05111600    0.06272500
Se    7.35265000   13.62378000   16.13592000      0.544348    0.31471000   -0.91958900
Se    7.55947000   19.08962000    6.26580000     -0.612371    0.32008900   -0.15793700
Se    7.08287000   18.99925000   15.51491000      0.325217    0.24652700    0.17357700
Se   12.97689000    1.46923000    6.01031000     -0.751362   -0.03601000   -0.12633600
Se   12.92653000    1.30026000   15.62093000      0.190581    0.48344700    0.23838500
Se   12.84250000    6.87166000    6.26853000      0.507272    0.52632300   -0.26718900
Se   12.60018000    7.14821000   15.95175000      1.224452    0.26119700   -0.17923900
Se   13.15244000   13.06673000    6.22932000     -1.281369   -0.46371000    0.47151100
Se   13.16940000   12.99256000   15.77678000      0.170953    0.13792600   -0.30500900
Se   13.13873000   18.88678000    6.12761000      0.041010    0.76995700   -0.23438500
Se   13.17016000   18.55249000   15.30629000     -0.254241   -0.22917000    0.63819300
Se   19.14404000    1.42496000    6.23587000     -0.481729   -0.87737600    0.59646600
Se   18.75219000    1.70627000   15.87429000      0.288221   -0.48894600    0.11774200
Se   18.97014000    7.16383000    6.17980000      0.638986   -0.32366500    0.30814000
Se   18.80979000    7.19594000   15.96623000     -0.477765    0.61361500   -0.59025800
Se   18.80867000   13.26352000    6.03648000      0.120290   -0.29682900   -0.00734600
Se   19.18779000   12.94755000   15.73618000      0.430580    0.70176800   -0.56824500
Se   18.96152000   18.17155000    5.77825000      0.367394    0.53191800    0.90793200
Se   19.11630000   18.85152000   15.92623000      0.948376   -0.34580000   -0.18965700
Se    4.55356000    4.39994000    5.93268000     -0.130266    0.17760800    0.18486800
Se    4.37662000    4.15617000   15.73331000     -0.441446    0.61679700    0.60277600
Se    4.15029000   10.18629000    6.01929000      0.638307    0.77431700    0.49280800
Se    4.44927000   10.10447000   15.82079000     -0.651838    0.06601500   -0.05342200
Se    4.46148000   15.86199000    6.23788000      0.524208    0.52103200    0.14469400
Se    4.31876000   16.44332000   15.67094000      0.617513   -0.50054100   -0.21122100
Se    4.19704000   21.89367000    5.57206000      0.961715    0.37653500    0.54005900
Se    4.42435000   22.04423000   15.64614000     -0.294477    0.06787900    0.48826500
Se    9.89838000    4.66774000    6.11322000      0.358046   -0.00438800    0.12704900
Se   10.31290000    4.62425000   15.94000000     -1.605709   -0.21325100   -0.23010700
Se   10.04429000   10.27869000    5.86088000     -0.737631    0.35994200    0.71512000
Se    9.93824000   10.23811000   15.90567000      0.103283   -0.03227300   -0.30946400
Se   10.35319000   16.18466000    6.21032000     -0.427744    0.22370100    0.53608600
Se   10.21499000   16.56921000   15.28437000      0.421562   -0.53268200    0.36620300
Se   10.30782000   22.22921000    5.66963000      0.236026   -0.54150700   -0.16908100
Se   10.14692000   21.71111000   15.63951000     -0.163750   -0.06299200    0.33553300
Se   16.01221000    4.08503000    6.29227000      0.085185    0.78309000    0.55979100
Se   16.01044000    4.43229000   15.94870000      0.111747   -0.03661000    0.08234800
Se   16.00491000   10.13329000    5.86019000     -0.709387   -0.41775600    0.42454500
Se   15.70560000    9.72870000   16.40078000      0.429042   -0.23617600   -1.26047500
Se   16.01257000   16.13777000    6.08440000     -0.488218   -0.06225800    0.09350400
Se   16.12742000   15.69286000   15.72088000     -0.940551    0.20821200    0.23681500
Se   16.12354000   21.95450000    5.88482000     -1.529403    0.01588800    0.51697200
Se   16.18475000   22.03892000   15.88990000     -1.626174   -1.11246900   -0.46560700
Se   21.97412000    4.15297000    6.33395000      0.141883    0.17980800   -0.06504400
Se   21.66429000    4.25610000   15.80696000     -0.016915   -0.38685200   -0.58586300
Se   21.82072000   10.14067000    6.45739000     -0.173474    0.83983400    0.04592800
Se   21.98629000   10.09622000   15.80496000     -0.792492   -0.42524500    0.00235100
Se   21.92354000   15.77859000    6.37002000      0.019762   -0.84512200   -0.74202300
Se   22.19502000   15.58761000   15.98626000     -0.074290    0.62608500   -0.30782300
Se   21.89713000   21.25304000    5.97251000      0.149419    1.39964400    1.20065600
Se   21.84561000   22.03966000   16.00029000     -0.021690   -0.20891700    0.22154600
Se    4.05323000    1.64328000    3.42161000      0.672824   -0.69828200   -0.36822200
Se    4.22716000    1.34056000   13.16209000      0.593788    0.58907400    0.06886100
Se    4.03858000    7.40697000    3.17846000     -0.348125   -0.74369500    0.62775300
Se    4.51915000    7.26387000   13.70425000     -0.450940    0.19571800   -0.08438900
Se    4.28064000   12.72902000    3.50341000      0.674603    1.98754300    0.16632100
Se    4.64933000   13.10006000   13.58837000      0.072806    0.53339800   -0.28256600
Se    4.79746000   19.07864000    3.76208000     -0.959204   -0.77422600    0.58699000
Se    4.28600000   18.94113000   13.15953000      0.715780    0.50698600   -0.09063500
Se    9.85515000    1.59028000    3.72487000      0.444883    0.56460600   -0.13520000
Se   10.22044000    1.66007000   13.28487000      0.043509   -1.86923900    0.14951900
Se   10.10752000    7.02045000    3.91477000     -0.622514    0.35221100    0.12684300
Se    9.74631000    7.18617000   13.41875000      0.445481    0.15345700    0.03134900
Se    9.82949000   13.26494000    3.91311000      0.340959   -1.36382300   -0.46524800
Se   10.49917000   12.97913000   13.52640000     -0.862176   -0.31242100    0.51770800
Se    9.91881000   18.77044000    3.63638000      0.016207    0.50681300    0.44539500
Se   10.12269000   18.80968000   13.10813000      0.124193    1.28790700    0.25613900
Se   15.83759000    1.52738000    3.69589000     -0.305518   -0.58817000    0.25064600
Se   15.90809000    1.31765000   13.54182000      0.265801    0.16484600   -0.29170400
Se   15.93100000    7.09386000    3.86508000     -0.012682    0.10189400   -0.24545500
Se   15.45611000    7.59906000   13.25997000      0.518812    0.26948000    0.15477200
Se   16.19848000   12.96301000    3.97120000      0.292018    0.75339800   -0.39139000
Se   16.32659000   13.09735000   13.14468000     -0.532042    0.43306600    0.37000100
Se   15.94812000   18.94459000    3.87043000      0.169546   -0.63253600   -0.66449700
Se   16.43928000   18.67771000   13.92606000     -0.624859    0.74842700   -0.49151800
Se   21.94040000    1.16856000    3.80345000     -0.498472    0.55545400   -0.00357700
Se   21.84365000    1.38084000   13.42199000      0.458570   -0.33897100   -0.70712800
Se   21.56999000    7.23068000    3.78314000      0.254604    0.77766600   -0.39423800
Se   21.66045000    7.13946000   13.45730000      0.084634    0.17680800    0.02188000
Se   22.24187000   13.04181000    3.92563000     -0.730040   -0.05849300   -0.19252500
Se   22.23734000   12.54407000   13.27266000      0.113634    1.38389400   -0.20342000
Se   22.02691000   18.71884000    3.84738000     -0.216052    0.32246300   -0.39557600
Se   22.35154000   18.53295000   13.41090000     -0.970260    0.13723400    0.90823600
Se    1.19253000    4.41403000    3.75496000     -0.075411   -0.30714900   -0.15456500
Se    1.36684000    4.15953000   13.46561000      0.394340    0.62050400    0.25155500
Se    1.10159000   10.26640000    3.78022000      0.541228   -1.22522000    0.00604500
Se    1.50011000   10.18085000   13.12829000      0.229595   -0.44742800    0.92483000
Se    1.88021000   16.00965000    3.44855000     -0.384128    0.04587600   -0.28854800
Se    1.72646000   15.82214000   13.41857000     -0.431007    0.23430700   -0.53630600
Se    1.42771000   21.65945000    3.23376000     -0.085586    0.84301700    0.01027300
Se    1.68091000   21.80309000   13.38569000     -0.855593   -0.74262200   -0.63259500
Se    7.03840000    4.57720000    3.74797000      0.185804   -0.41859500   -0.03690000
Se    7.40875000    4.47085000   13.09486000     -0.332910   -0.56030900    0.45729700
Se    7.07527000   10.03752000    3.66343000      0.236685    0.40580200    0.17380900
Se    7.05037000   10.48126000   13.23028000      0.530891   -0.88324500    0.38645200
Se    7.07368000   16.39393000    3.90410000      0.504799   -1.30103100    0.15525000
Se    7.66727000   15.91809000   12.91051000      0.350675   -0.02142000    0.65133300
Se    7.57951000   22.16832000    3.35665000     -0.346554   -0.17068800    0.50711300
Se    7.21719000   22.04054000   13.26760000     -0.331866    0.07947500   -0.32299200
Se   13.01793000    4.49445000    3.66507000     -0.040692   -0.60089000    0.35402600
Se   13.05611000    4.46529000   13.96910000     -0.406262    0.25150800   -0.87528400
Se   12.81052000    9.87163000    3.96700000      0.668193    0.50619300    0.31132200
Se   12.72265000   10.30211000   13.52608000      0.030254   -0.06020500    0.44174200
Se   13.27484000   15.80107000    3.48906000     -0.438429   -0.19696600    0.25691900
Se   13.07904000   15.95423000   13.30148000      0.207571   -0.61435900   -0.07588400
Se   13.11345000   21.75095000    3.35343000     -0.487540   -0.37378600    0.32502400
Se   13.43543000   21.92864000   13.30463000     -0.415936   -1.23207100    0.01369100
Se   19.08613000    3.98088000    3.58819000      0.110040    1.32557600    0.19501300
Se   18.77891000    4.30444000   13.04870000      0.061024   -0.82307200    0.18025300
Se   18.74387000   10.14176000    4.03210000     -0.479725    0.04633800   -0.67816700
Se   18.73292000   10.40070000   13.75729000      0.549505    0.12123000    0.54049200
Se   19.20796000   15.93934000    3.61157000     -0.124561    1.12130100   -0.36758400
Se   19.46990000   16.00035000   13.50125000     -0.364424    0.24076800   -0.47031600
Se   18.89039000   21.43240000    3.62286000      0.055481    0.55861100   -0.24927000
Se   19.39582000   21.51708000   13.85321000     -0.696176    0.25776700   -0.95809600
