384
23.23808000 23.23808000 19.51320000
Ge    5.71657000    5.98340000    9.84617000     -0.491777    0.00315300   -0.05142500
Ge    5.97380000    5.81834000    0.10387000     -0.022063    0.52795400   -0.62329000
Ge    5.63312000   11.39769000    9.67116000     -0.920067    1.21530100   -0.31832400
Ge    5.80193000   11.84055000   19.41845000     -0.714100    0.65540600    1.20513000
Ge    5.81861000   17.75363000    9.78144000      0.140633    0.34477600   -0.77202600
Ge    6.22543000   18.02707000   19.29297000     -1.482906   -1.04313400    0.13304500
Ge    5.96789000    0.29970000    9.42602000     -0.727064   -0.52064800    0.09658200
Ge    5.69460000    0.17936000    0.19267000      0.015667   -0.32514600   -0.47207400
Ge   11.63060000    5.80622000    9.72644000     -1.469368    0.83017900    1.39154800
Ge   11.59791000    6.02181000    0.12250000      0.544041   -0.72232700   -0.41288500
Ge   11.70128000   11.26346000    9.85544000     -0.036314    0.90237100   -0.26090800
Ge   11.60445000   11.70310000    0.04928000      0.118044   -1.30211200    0.23793200
Ge   11.84135000   17.50120000    9.82887000      0.933376    0.18058100   -0.54369800
Ge   11.77020000   17.33153000    0.14644000      0.283935   -0.55054300   -0.63594700
Ge   11.71286000   23.18183000    9.84257000      0.217033    1.36382400   -0.90361700
Ge   11.68412000    0.01955000    0.13128000     -0.358923    0.53190800    0.53511700
Ge   17.17238000    6.14527000   10.06096000      0.240370   -0.29534500   -0.02260500
Ge   17.11175000    6.04756000    0.01996000      0.479840   -1.16939800    0.03040200
Ge   17.27829000   11.82268000    9.75904000     -0.244089    1.07161400    0.44708000
Ge   17.74450000   11.44814000    0.12802000     -1.194414   -0.49564000   -0.59314000
Ge   17.43059000   17.48044000    9.76347000      0.003450    0.90092100    1.85833300
Ge   17.30846000   17.19625000   19.04135000     -0.024602   -0.57187300    0.68901800
Ge   17.23492000   23.05482000    9.55189000     -0.382602    1.54148400    0.47647000
Ge   17.25796000   23.12419000   19.35995000      0.308477    1.02695500    0.81713800
Ge    0.09855000    5.80912000    9.77456000     -0.112096   -0.21817400   -0.10780000
Ge   23.08993000    5.72829000    0.13413000     -0.155982   -0.04015200   -0.59055900
Ge   23.13895000   11.57736000    9.82228000     -0.836131    0.22048500   -0.66288100
Ge    0.06300000   11.61531000   19.49672000      0.440845   -0.43880800    0.34881800
Ge   23.20587000   17.40329000    9.82415000      0.132547   -0.83056500    0.39138800
Ge   23.13560000   17.35080000   19.41666000      1.240326    0.00050100    0.64053200
Ge   23.23347000   23.05871000    9.58457000      1.998849    0.28456100    0.49777600
Ge    0.10156000   23.02894000    0.09072000      0.283313    0.29178500   -1.14324500
Ge    3.03271000    5.67558000    7.39714000     -0.532160    0.23687100   -0.23220300
Ge    2.90746000    5.57843000   17.26061000      0.237335    0.58493500   -0.67641200
Ge    2.63691000   11.85223000    7.03034000      1.899488   -1.67751300    1.97179000
Ge    2.97909000   11.65201000   16.98873000     -0.328229   -0.63473600    1.17229900
Ge    2.89130000   17.37163000    7.39263000     -0.101231    0.34812300   -0.61140800
Ge    2.77643000   17.62889000   17.01018000      1.717668   -2.19018500    1.12576000
Ge    2.90959000   23.20120000    7.06566000      0.171165    0.56796900   -0.12669200
Ge    2.96869000    0.14814000   17.15595000      0.009985   -0.27914600    0.39730500
Ge    8.32302000    5.90740000    7.30295000     -0.381645   -0.88583000    0.33211300
Ge    8.68330000    6.13368000   17.08067000     -0.257167   -1.08540100    0.56005100
Ge    8.57025000   11.70201000    7.41077000      0.592478    0.29850300   -1.28645300
Ge    8.66714000   11.76303000   17.05293000     -0.668805    0.85558700    0.99885700
Ge    8.96234000   17.76305000    7.66685000      0.137559   -0.94506300   -0.78871300
Ge    8.91964000   17.81719000   16.75502000     -0.423787    0.68616400   -0.00209700
Ge    9.08795000    0.44482000    7.22056000     -1.287786   -0.54407200    0.11816100
Ge    8.60053000   23.05411000   17.10518000      0.797289    0.11108600   -0.13555800
Ge   14.55138000    5.56917000    7.47846000      0.392891   -0.32288800   -0.00029600
Ge   14.46576000    5.97402000   16.97838000     -0.364595    0.33557700    0.14963800
Ge   14.56568000   11.32094000    7.27496000     -0.281028    0.48626800    0.48266700
Ge   14.63541000   11.66941000   17.14473000     -0.292637   -0.51344800    0.95329400
Ge   14.86264000   17.86903000    7.46945000     -0.548522   -0.83405400   -1.17118400
Ge   14.38599000   17.10991000   16.94100000     -0.095521   -0.18441600   -0.63171100
Ge   14.22476000   23.04919000    7.09412000      1.370707   -0.36330200    0.69373600
Ge   14.29624000   23.17707000   16.97553000      0.169931   -0.19029100    0.51732000
Ge   20.37787000    5.55229000    7.47817000      0.420390    1.20403700   -0.43796900
Ge   20.17470000    5.63028000   17.03604000      1.292691   -0.33469800    1.09843900
Ge   20.32194000   11.93406000    7.24285000     -0.807839   -1.00939700    0.87204700
Ge   20.58251000   11.52122000   17.15914000     -0.160810   -0.87094200   -0.53708700
Ge   20.39872000   17.12499000    7.57862000     -0.841439    0.80160900   -0.54751800
Ge   20.38981000   17.07062000   16.85743000      1.099008   -0.69804000    0.98509500
Ge   20.59127000   23.08551000    7.42547000     -0.701088   -0.98919900   -0.53209400
Ge   20.13316000    0.01437000   17.17635000     -0.675485    0.70828000   -0.68691900
Ge    2.84594000    3.03279000    4.86500000     -0.251219   -0.09976700   -0.07621400
Ge    2.92095000    2.65372000   14.71719000      0.229663    0.46738600   -0.92458400
Ge    2.81144000    8.64348000    4.84757000     -1.209196    0.35564900   -0.44195200
Ge    2.81241000    8.75517000   14.69112000     -0.139736   -1.16559300    0.44431900
Ge    3.16800000   14.41926000    4.82127000     -0.871344    0.00841900   -1.08005700
Ge    3.11301000   14.52610000   14.77086000      1.121558    0.61577300   -0.99880600
Ge    2.72536000   20.27988000    4.66225000     -0.182686   -0.51789500   -0.15929200
Ge    3.09681000   20.38101000   14.64834000     -0.266965    0.22757700    0.46077700
Ge    8.52984000    3.02075000    5.01228000     -0.686700    1.19054600   -0.44676500
Ge    8.88217000    3.08040000   14.61085000     -1.561851    0.14617600    0.78005000
Ge    8.61075000    8.60793000    5.02814000     -1.044728   -0.58071000   -0.74627200
Ge    8.52041000    8.93842000   14.58120000     -0.888178   -0.77279100   -0.70885900
Ge    8.67599000   14.83847000    5.24511000     -0.338028    0.94894500   -1.11700400
Ge    9.09549000   14.69370000   14.56470000     -1.551063   -0.66462200   -0.13698100
Ge    8.85696000   20.67812000    4.87379000     -0.694607   -0.97677900   -0.34890100
Ge    8.53429000   20.47906000   14.30328000      0.636422   -0.18277200   -0.78550100
Ge   14.33024000    2.92461000    4.98295000      0.971834    1.69603700   -0.88675000
Ge   14.52045000    2.89181000   14.74090000     -0.168463   -1.08348400   -0.28634600
Ge   14.37337000    8.36313000    5.11822000     -0.462088    1.26016300    0.11196900
Ge   14.11862000    8.69235000   14.91226000     -0.903798    1.24377000   -1.12670300
Ge   14.48906000   14.40414000    4.97384000      0.818324    0.40667800   -0.27947100
Ge   14.55021000   14.39694000   14.42136000     -0.628790   -0.54133500   -0.43111500
Ge   14.46957000   20.43342000    4.84109000      1.099902    0.96924400    0.09274300
Ge   14.79876000   20.17241000   14.67074000     -1.336275    1.68063200    0.52586500
Ge   20.58031000    2.78273000    4.96045000     -0.088993   -0.61722200    0.60464900
Ge   20.21566000    2.86270000   14.19379000      0.144852   -0.02531600    1.77330400
Ge   20.44283000    8.83787000    5.12004000     -0.751137   -1.32113200   -0.58074900
Ge   20.27711000    8.61418000   14.79011000      0.453745    0.64650000   -0.34373900
Ge   20.46921000   14.52756000    4.85938000      1.100461   -0.60084900    0.55676000
Ge   20.97561000   14.39017000   14.28700000      0.132259   -1.17807200    1.60925200
Ge   20.27940000   20.15428000    4.91706000     -1.285812   -1.94138000   -0.96440900
Ge   20.98367000   20.03047000   14.88282000      0.162481    0.66405200   -0.50881600
Ge    5.69887000    2.90249000    2.37142000     -0.710179    1.77119200    1.54684200
Ge    5.75738000    2.95679000   11.92726000     -1.462329    1.22395400    1.44831100
Ge    5.67629000    8.70041000    2.31527000      1.078811    1.20349500   -1.50485800
Ge    5.61278000    8.81356000   12.21763000      0.482342   -0.29702600    0.02264300
Ge    5.78625000   14.72695000    2.48138000      0.526451   -0.20034100    0.01568200
Ge    5.87515000   14.65001000   12.12934000      0.259961   -1.01726900   -0.11914500
Ge    6.11843000   20.50571000    2.55622000     -0.138112    1.01632300   -0.47949200
Ge    5.53254000   20.68523000   11.93474000      0.703997   -0.09448900    0.47029600
Ge   11.54884000    2.84330000    2.48984000      1.399258    0.32415100    0.25137100
Ge   11.76914000    3.12313000   12.42277000     -1.045258   -0.40582100   -1.79334400
Ge   11.31907000    8.68934000    2.68267000      0.321998   -0.62551500   -1.32142400
Ge   11.56211000    8.46501000   12.36311000     -0.417901    1.35548700   -0.01699200
Ge   11.39789000   14.48824000    2.69516000      1.074850    0.73100800   -1.59663400
Ge   11.68652000   14.34475000   12.07997000      0.371625    0.70480400   -0.16354900
Ge   11.66956000   20.07710000    2.54953000      0.502490   -0.17421400   -0.38499200
Ge   11.84801000   20.38228000   12.25899000      0.547586   -0.24034900   -0.69132500
Ge   17.34678000    2.82595000    2.48910000     -0.895620   -0.11140400   -0.16218200
Ge   17.20984000    2.65326000   12.06727000      0.281520    0.72549500    0.52596200
Ge   17.20324000    8.73518000    2.55645000      0.870302   -1.16842100    0.68321700
Ge   17.05970000    9.33268000   12.49892000      0.795705   -1.53582300   -0.52708300
Ge   17.80637000   14.40393000    2.45502000     -0.659138   -0.42768400    0.17872500
Ge   17.74824000   14.74703000   12.29774000     -0.422141   -1.38495500   -0.58911900
Ge   17.35734000   20.11319000    2.24803000      0.791035    0.00743200    0.03188000
Ge   17.79772000   20.17226000   12.50590000      0.149601    0.72474700    0.19534200
Ge   22.95632000    2.82642000    2.45661000      1.009403   -0.60676700    0.10162400
Ge    0.13168000    2.87842000   12.02466000     -0.417778   -1.51033500    0.01064800
Ge   22.94075000    8.73143000    2.44523000     -0.074429   -0.11096600    0.53521600
Ge   23.04902000    8.73417000   12.20572000      0.597335   -0.88992400    0.65434400
Ge    0.28570000   14.55182000    2.50557000     -0.020673   -0.36871500   -0.56282300
Ge    0.53645000   14.13932000   12.14039000     -0.296810   -0.42119800   -0.75665600
Ge   23.08225000   20.13920000    2.22738000      0.505146    0.15569000    0.06177600
Ge    0.20314000   20.20086000   12.10229000      0.577605    0.41481800    0.14585600
Se    1.42826000    1.38135000    1.23967000     -0.569273    0.33848000    0.36107600
Se    1.67268000    1.33758000   10.88288000     -1.310369   -0.48479700   -0.14482400
Se    1.23410000    7.27818000    1.31185000     -0.032036   -0.06528500   -0.08606800
Se    1.43290000    7.29227000   11.17526000     -0.238694   -0.22759500   -0.33273300
Se    1.63659000   13.10236000    1.03228000     -0.438730    0.13560300    0.58342900
Se    1.83232000   12.65089000   10.58088000     -0.451737    0.95881400    1.09878400
Se    1.51742000   18.81616000    1.06822000     -1.145719   -0.15323700   -0.07467700
Se    1.57745000   18.40230000   11.25408000      0.103739    0.58399400   -0.41385400
Se    7.26972000    1.56273000    1.47124000      0.721678   -1.01165400   -1.04298900
Se    7.33551000    1.75683000   10.80519000      0.569778   -0.95628800   -0.80444500
Se    7.39619000    7.36339000    1.25650000     -0.544988   -0.01267300   -0.06938900
Se    7.25068000    7.49849000   10.97943000     -0.606954   -0.15544800   -0.06737200
Se    7.38143000   13.14770000    1.44929000     -1.017188   -0.07731100   -0.49928400
Se    7.02934000   12.98587000   10.70031000      0.360132    0.74936900    0.68427000
Se    7.58750000   19.42262000    0.96928000      0.827275    0.07131800    0.72683400
Se    7.16374000   19.45945000   10.68780000     -0.001030   -0.08631200    0.33513900
Se   13.36388000    1.26960000    1.34862000     -1.566207    0.67779500    0.22435600
Se   13.23064000    1.52393000   11.08201000     -0.539070    0.06114400    0.18950600
Se   13.01073000    7.49673000    1.27341000     -0.527416    0.34547300    0.57558600
Se   13.23250000    7.18472000   11.31076000     -0.665065   -0.70868300   -0.88676500
Se   12.99855000   13.05326000    1.41390000     -0.330393    0.27813500    0.17935200
Se   13.13418000   13.06506000   10.83124000      0.186560   -1.00186800   -0.50730500
Se   13.33423000   18.46592000    1.56278000     -0.867204    0.68743900   -0.15820200
Se   13.43989000   18.80963000   11.01450000     -0.804029    0.67477300    0.42411800
Se   18.67259000    1.14873000    1.54335000      0.158088   -0.58275400   -1.23178000
Se   18.60932000    1.36041000   10.76414000      0.879936   -0.23652400   -0.47254400
Se   18.70566000    7.41887000    1.11192000     -0.220232    0.10741100    0.48311600
Se   18.61719000    7.62777000   11.28331000     -0.736823    0.02169800    0.26029500
Se   19.24208000   12.71932000    1.26459000      0.362315    1.36024600    0.91273300
Se   18.92762000   12.95173000   11.04136000     -0.089614    0.64525200    0.30138100
Se   18.78138000   18.69820000    0.82419000     -0.404744    0.01576200    0.21089000
Se   19.14184000   18.73222000   11.15946000     -0.512796   -0.32569600   -0.31518200
Se    4.37006000    4.61063000    1.33483000     -0.181853   -0.50956000   -0.13478000
Se    4.06289000    4.63164000   11.06047000      1.429763   -0.38759100    0.07436500
Se    4.28363000   10.02926000    0.73461000      0.922848    0.40801200    0.58841900
Se    4.07243000   10.16956000   11.02199000     -0.036638   -0.02213900   -0.27689400
Se    4.74241000   16.46364000    1.00826000      0.004643   -0.43684500    0.09432700
Se    4.48832000   16.21958000   10.95927000     -0.791285   -0.22591800    0.31904500
Se    4.41150000   21.58695000    1.19265000      0.187767    0.63391700    0.12002400
Se    4.20792000   22.17939000   10.74028000      0.452777    0.50421300   -0.71270300
Se   10.21104000    4.42347000    1.35127000     -0.208185    0.18915000   -0.59031600
Se    9.94929000    4.41093000   11.04969000      2.043903    0.38393500    0.08285700
Se   10.06963000   10.28349000    1.45496000     -0.097151    0.38108000   -0.37490100
Se   10.11007000    9.89682000   10.86667000      0.354373   -0.57433100    0.83458100
Se   10.09572000   16.02393000    1.16452000      0.040586   -0.41580700    0.58036000
Se   10.43378000   15.94456000   10.84713000     -1.162170   -0.12518500   -0.02919300
Se   10.34181000   21.56081000    1.22439000     -0.098656    0.12941300   -0.05671500
Se   10.24103000   21.79199000   11.02724000      0.074542    0.01643200    0.25422100
Se   15.86410000    4.40961000    1.37447000      0.524320   -0.09245400   -0.01865800
Se   15.76332000    4.22591000   11.11817000     -0.054170    1.02702700   -0.64425000
Se   16.06409000   10.48170000    1.61231000     -0.535463    0.22412200   -0.65430900
Se   15.81446000   10.23931000   10.70177000     -0.593469   -0.13749400    0.62476500
Se   16.05375000   15.55789000    1.25395000      0.851035    0.62997500   -0.57996000
Se   16.04540000   15.97810000   11.15468000      0.345549    0.48313400   -0.36925900
Se   15.97233000   21.70393000    1.21233000     -1.083390   -0.10762100   -0.08609100
Se   16.25350000   21.69487000   11.12140000     -0.680198   -1.18518600    1.35975700
Se   21.48195000    4.09184000    1.02732000      0.464320    0.38937400    0.22228700
Se   21.77843000    4.17855000   10.83868000      0.400266    0.50163900   -0.16327300
Se   21.66153000   10.42532000    1.26808000      0.260059   -0.50674900    0.06518700
Se   21.61339000    9.98125000   10.89823000     -0.308654    0.65370300   -0.43204200
Se   21.90808000   15.77536000    1.19975000     -0.263853    0.13810200    0.20006900
Se   22.09637000   15.48568000   10.97966000     -0.011986    0.35527200   -0.14553000
Se   21.66464000   21.67806000    0.97733000     -0.270907   -0.62486500    0.45558000
Se   21.93246000   21.26617000   10.44015000      0.088501    0.02852000    1.00645600
Se    1.57626000    4.16331000    8.68796000     -0.112033    0.83997000   -0.17072400
Se    1.50749000    4.22349000   18.64585000     -0.216835   -0.01687700   -0.10035500
Se    1.30601000   10.30149000    8.41765000      0.515808   -0.44783700   -0.77068800
Se    1.39630000   10.05800000   18.18791000      0.112372    0.77264500   -0.25944200
Se    1.29149000   16.00337000    8.41560000     -0.161257   -0.52560600    0.31937100
Se    1.59863000   15.94260000   18.42425000      0.140875    0.52142300   -0.72135300
Se    1.47612000   21.63544000    8.14741000     -0.563048    0.41027200    0.44628900
Se    1.70569000   21.63837000   18.30660000     -0.117683    0.88290200    0.34585500
Se    7.07693000    4.33269000    8.68607000      0.007671    0.72532100   -0.15968900
Se    7.37161000    4.40880000   18.30846000      0.187113    0.38326600   -0.20483000
Se    7.26248000   10.18283000    8.52858000     -0.204590   -1.63673900    0.10581200
Se    6.98918000   10.34181000   18.12028000      0.737440    0.04037900   -0.56067700
Se    7.52535000   16.27461000    8.91289000     -0.263498    0.21463600   -0.39583200
Se    7.39257000   16.54748000   17.92519000     -0.067468   -1.42278800    0.32728400
Se    7.30772000   22.02028000    8.08854000      0.450224    0.54050100    0.43444500
Se    6.91473000   21.80709000   18.32666000      0.347565    0.44531200   -0.13473200
Se   12.94057000    4.27382000    8.68630000      0.747965   -1.40164800   -0.45224600
Se   13.24803000    4.57585000   18.38238000     -1.058004   -0.59554100    0.59534900
Se   12.96734000    9.74791000    8.57303000      0.773742    0.71834800   -0.65550100
Se   12.83211000   10.20928000   18.03119000     -0.048236    0.86952600    0.58024000
Se   13.29357000   16.30993000    8.24291000     -0.521596   -0.17446200    0.86721300
Se   13.25296000   15.65110000   18.52997000     -0.196913    0.54999000   -0.26256500
Se   12.50706000   21.67122000    8.08225000      0.640070    0.06908500    0.59787000
Se   12.69502000   21.75269000   18.25478000      1.337811   -0.48449800   -1.19791000
Se   18.70850000    4.61878000    8.82411000     -0.552300   -0.57243700    0.40395500
Se   18.43907000    4.41560000   18.13415000     -0.257240    0.39988500    0.59269300
Se   18.55940000   10.49214000    8.47291000      1.742209   -0.69886600   -1.22016300
Se   19.02602000    9.89807000   18.31120000      0.018900    0.70636700   -0.29731600
Se   18.55244000   15.92081000    8.57855000      0.973931   -1.21179000   -0.63326200
Se   18.75544000   15.53515000   17.62763000     -0.579868    0.45230700    0.82052000
Se   18.60171000   21.69638000    8.36524000      1.801584   -0.46754100   -1.08064000
Se   18.47436000   21.68774000   17.98959000      1.163160   -0.11295700   -0.00532400
Se    4.23373000    1.65090000    8.31999000      0.174526   -0.80987400   -0.05339300
Se    4.45798000    1.77181000   18.32846000     -0.252771   -0.76410400    0.02856000
Se    4.15545000    7.46847000    8.60054000      0.263427   -0.88330200   -0.05390600
Se    4.43503000    7.18030000   18.23291000     -0.042309   -0.34371800    0.23144500
Se    4.56262000   13.07513000    8.17073000     -0.645104   -1.13143300    0.32390700
Se    3.97896000   13.25316000   18.45759000      1.133604   -0.28582500   -0.18751300
Se    4.00212000   19.08619000    8.58761000      0.980192   -0.76236500    0.22840300
Se    4.37444000   19.06850000   18.14981000     -0.183336    0.39573500    0.12017300
Se   10.58135000    1.87073000    8.39949000     -0.401446   -1.09673800    0.63150600
Se   10.02035000    1.34697000   18.53659000     -0.372359   -0.24468600   -0.29868500
Se   10.07175000    7.12170000    8.25857000      0.668012    0.94764600    0.73655900
Se   10.09944000    7.47803000   18.43809000      0.082609    0.11837200    0.15768400
Se   10.10515000   12.80800000    8.80023000      0.571645    0.53390300   -0.02735800
Se   10.03000000   13.15294000   18.61067000     -0.603541   -0.12673200   -0.80485600
Se   10.33674000   19.17519000    8.91404000      0.289587   -0.04862400    0.08391700
Se   10.73469000   18.81187000   17.98174000      0.076763    0.57845400    0.37634200
Se   15.31151000    1.17151000    8.81845000      0.446195   -0.48312700   -0.19704500
Se   15.82809000    1.44710000   18.21401000     -0.216461   -0.21591600    0.18316500
Se   15.51427000    7.32461000    8.72260000      0.640610   -0.02643800    0.39034200
Se   15.50634000    7.51819000   18.64038000      0.150584   -0.16276600   -0.66468800
Se   15.67981000   13.12095000    8.59515000     -0.276372   -0.18410700   -0.45107500
Se   15.88476000   12.89962000   18.85033000      0.169360   -0.03746200   -0.67864100
Se   16.31681000   19.25227000    8.63061000      0.037209    0.32392700    0.11869500
Se   15.65422000   18.74168000   18.09308000      0.590831   -0.15091500    0.20198800
Se   21.78610000    1.41699000    8.72154000     -0.128582    0.09231500   -0.12784400
Se   21.84888000    1.28554000   18.27988000      0.111884   -0.04950400    0.29018600
Se   21.89635000    7.21722000    8.41971000      0.065574   -0.60981900    0.34920000
Se   21.85692000    7.16182000   18.11861000     -0.408045   -0.90753300    0.32528700
Se   21.78978000   13.24483000    8.52411000      0.505686   -0.17942800    0.55868100
Se   21.81192000   13.06637000   18.42693000     -0.045723    0.41380100   -0.25675100
Se   21.68466000   18.83881000    8.68092000     -0.266407   -0.23930000    0.06995100
Se   21.59971000   18.73930000   18.32114000     -0.250890   -0.61190500   -0.35593600
Se    1.34096000    1.45224000    5.97476000      0.609733    0.17538900    0.04755500
Se    1.33525000    1.41434000   15.93514000      0.172602   -0.15946300    0.17294400
Se    1.38723000    6.98070000    6.04190000      0.879310    0.28309200   -0.10183300
Se    1.37350000    7.09528000   16.02049000      0.766316    0.43765300   -0.30997100
Se    1.44087000   13.42601000    6.07610000     -1.784237    0.84797800   -0.69070900
Se    1.60888000   13.17236000   15.85235000     -1.107729   -0.31996000    0.11721200
Se    1.34763000   18.73471000    6.12075000      0.656958    0.30583200   -0.65330300
Se    1.41876000   19.09770000   16.04178000     -0.618460    1.32617100   -1.23904600
Se    7.13726000    1.57401000    6.28413000      0.760953    0.07096200   -0.12360600
Se    7.21365000    1.34120000   15.95762000      0.774545    1.01093200   -0.65276400
Se    6.79080000    7.43451000    6.31567000      0.987987    0.17734400   -0.41574100
Se    7.10790000    7.44689000   15.94705000     -0.127788    0.28928500   -0.36315100
Se    7.18887000   13.42089000    6.24623000     -0.468774   -0.96132000    0.82321100
Se    7.38786000   13.60735000   16.11164000      0.902640   -0.09591600   -0.66070700
Se    7.53770000   19.06681000    6.29753000     -0.286873    0.59522600   -0.26777300
Se    7.16013000   19.01948000   15.48189000      0.354388   -0.23370800    0.56745100
Se   12.95298000    1.40692000    5.96426000     -1.348121   -0.23641800    0.14625800
Se   12.90877000    1.33216000   15.63603000      0.127966    0.25794500    0.30098500
Se   12.89750000    6.86870000    6.45576000      0.286361    0.93953500   -0.98167900
Se   12.56454000    7.21287000   15.90906000      1.041345   -0.36188600    0.09723400
Se   13.09470000   12.99914000    6.20344000     -0.529975   -0.55400500    0.31873500
Se   13.16004000   12.92533000   15.84288000      0.017044    0.51070900   -0.61798400
Se   13.19868000   18.97545000    6.12806000     -0.283411    0.08727100    0.24276700
Se   13.11482000   18.51992000   15.25914000      0.413296    0.10961100    0.78659100
Se   19.18801000    1.36348000    6.27710000     -0.704635   -0.05953900   -0.13348600
Se   18.69588000    1.75305000   15.82946000      0.836943   -0.73944600    0.07600000
Se   19.05993000    7.14310000    6.15204000     -0.133366   -0.34022700    0.33957900
Se   18.87864000    7.15562000   16.02227000     -1.581109    1.20928900   -0.87658100
Se   18.84531000   13.28076000    5.99667000     -0.203775   -0.41948700    0.06080600
Se   19.34392000   13.01263000   15.75579000      0.078673    0.29587800   -0.35339400
Se   19.01999000   18.16828000    5.83992000      0.270521    1.12634100    0.37890100
Se   19.24363000   18.77171000   15.86101000     -0.766100    0.39045000   -0.40562200
Se    4.55558000    4.39167000    5.99471000     -0.724967    0.06427300   -0.05868900
Se    4.39442000    4.22245000   15.74727000     -0.447625    0.20997900    0.56747900
Se    4.15386000   10.21391000    6.08125000     -0.042181    0.13189200   -0.22586300
Se    4.40832000   10.14788000   15.84391000     -0.032465    0.04813300   -0.13868200
Se    4.35060000   15.79770000    6.22184000      1.172654    1.07584400    0.71297500
Se    4.40042000   16.41602000   15.56993000     -0.564184   -0.24698700    0.40904500
Se    4.23399000   21.84530000    5.55397000      0.311618    0.40219300    0.80633100
Se    4.49576000   22.12764000   15.74014000     -0.328654   -0.53632100   -0.28307000
Se    9.94881000    4.59754000    6.13614000     -0.233958   -0.41792200   -0.23467500
Se   10.20462000    4.55358000   16.10489000     -0.197861   -0.44890700   -0.53956900
Se   10.02705000   10.28172000    5.80743000     -0.289389    0.77677300    1.02479000
Se    9.95104000   10.20838000   15.88505000      1.319220    0.24731300    0.00679500
Se   10.31158000   16.17876000    6.19009000      0.229351    0.62035700    0.94313300
Se   10.25127000   16.59068000   15.29541000      1.101426   -0.56767200   -0.04892700
Se   10.32911000   22.28855000    5.63591000      0.573726    0.15404500    0.57577900
Se   10.16376000   21.68558000   15.46333000     -0.337516    0.51562200    1.17291700
Se   16.02859000    4.13531000    6.25166000     -0.384735    0.01422600    0.12492600
Se   15.97733000    4.29662000   15.88373000      0.210545    0.85084300    0.55982500
Se   16.08216000   10.12869000    5.86828000     -1.007073   -0.55176000    0.28461700
Se   15.68893000    9.68824000   16.35036000      0.959482    0.27897400   -0.35950200
Se   15.88129000   16.10005000    6.11371000      0.468203   -0.08514800   -0.12214200
Se   16.00786000   15.73105000   15.61237000      0.093452    0.59927400    0.96381200
Se   16.11576000   21.93869000    5.96201000     -1.576180   -0.20359100    0.11508900
Se   16.08467000   21.94584000   15.97745000     -1.099857   -0.83119100   -0.52264500
Se   22.01111000    4.04348000    6.43682000     -0.546804    0.45357700   -0.20748400
Se   21.58768000    4.23259000   15.87509000      0.302291   -0.61616700   -0.94687300
Se   21.77187000   10.19246000    6.49075000      0.435849    0.22941100   -0.12852400
Se   22.06898000    9.97944000   15.84633000     -1.138154    0.01755500    0.25711300
Se   21.84228000   15.80947000    6.35171000      0.844187   -0.56216700   -0.32230800
Se   22.19625000   15.62955000   16.07810000     -0.284380    0.32165100   -0.83814900
Se   21.87971000   21.26521000    6.01977000      0.690280    1.66379500    1.47803500
Se   21.86350000   22.11974000   16.04034000      0.303245   -0.99978400   -0.30817800
Se    4.04441000    1.52618000    3.40777000      0.170203   -0.02225200    0.26187700
Se    4.29803000    1.34259000   13.17688000      0.341671    0.44160000    0.07694000
Se    4.04557000    7.41180000    3.12412000     -1.432943   -1.47750100    1.37185500
Se    4.42373000    7.27562000   13.60155000     -0.248908    0.18539000    0.02712600
Se    4.28813000   12.78097000    3.55260000      0.753587    1.33435500   -0.17827600
Se    4.70058000   13.06252000   13.59189000     -0.298728    0.78838800   -0.14711000
Se    4.81385000   19.03028000    3.85017000     -0.622624   -0.32894000    0.19657000
Se    4.24738000   18.94788000   13.09795000      0.432307    0.19559600    0.40388300
Se    9.89911000    1.55963000    3.73720000      0.712173   -0.16464200   -0.51581600
Se   10.15676000    1.64311000   13.31442000      0.167435   -0.90764000    0.26152400
Se   10.13846000    7.03537000    3.83880000     -0.860256    0.14220000    0.45704500
Se    9.77706000    7.17330000   13.38741000      0.112211    0.54702400    0.28516700
Se    9.85862000   13.28979000    3.85896000     -0.441217   -0.89070000    0.36430000
Se   10.44498000   13.00056000   13.49313000     -0.753222   -0.36308000    0.60608500
Se    9.94223000   18.81606000    3.65924000      0.297165    0.64383700    0.28059900
Se   10.20136000   18.88339000   13.05040000     -0.496562    0.77955600    0.40152300
Se   15.78620000    1.51533000    3.76517000      0.345549   -0.29863900   -0.27684300
Se   15.98081000    1.28597000   13.57074000     -0.341169    0.37114400    0.06264100
Se   15.89498000    7.12280000    3.88002000      0.554322   -0.49615800   -0.72094400
Se   15.48699000    7.60050000   13.28706000      0.475964   -0.09758900    0.17280100
Se   16.21106000   12.98090000    3.96100000      0.162264    0.87350400   -0.34747200
Se   16.18158000   13.06666000   13.14844000     -0.236658    0.47322600    0.39315600
Se   16.07064000   18.99620000    3.88184000      0.053750   -1.33068200   -0.44167900
Se   16.42613000   18.75596000   14.01575000      1.000234   -0.58139600   -1.36762900
Se   21.84021000    1.12380000    3.84983000      0.304105    0.61148900   -0.69399000
Se   21.89039000    1.37458000   13.45682000      0.304315    0.21224700   -0.70937100
Se   21.48370000    7.17195000    3.70838000      0.532578    0.99259700   -0.20561300
Se   21.60122000    7.15114000   13.39915000      0.300484    0.54525600   -0.10087900
Se   22.17702000   13.10480000    3.91683000     -0.409224    0.04635500   -0.29568400
Se   22.23843000   12.57976000   13.29866000      0.008520    0.99795100   -0.09369800
Se   21.96927000   18.71265000    3.76655000     -0.444590    0.27181000   -0.07546300
Se   22.30484000   18.54769000   13.34684000     -0.636552    0.59853200    0.74887200
Se    1.20037000    4.41476000    3.71008000     -0.309770   -0.27135800   -0.26007300
Se    1.41089000    4.12984000   13.46846000      0.619233    0.93147900    0.51701700
Se    1.07301000   10.24651000    3.72931000      0.683554   -1.14230200    0.32242300
Se    1.53335000   10.17691000   13.26085000     -0.449524   -0.10839200   -0.05153700
Se    1.88755000   16.02749000    3.46434000      0.072864   -0.20679800    0.25266900
Se    1.65870000   15.81197000   13.31192000      0.378093   -0.12003900    0.43191900
Se    1.39507000   21.70571000    3.18848000      0.234185   -0.23357500    0.58222900
Se    1.68205000   21.80210000   13.35148000     -0.843953   -0.12644600   -0.46526400
Se    6.98774000    4.53043000    3.77406000      0.222339   -1.10712100   -0.19146200
Se    7.38432000    4.46273000   13.09936000     -0.229916   -0.59866800    0.54022400
Se    7.07070000   10.01288000    3.63288000      0.648410    0.43302200    0.64371800
Se    7.04487000   10.41370000   13.26863000      0.600018   -0.30449000    0.43373900
Se    7.11063000   16.32457000    3.93793000     -0.019613   -1.13958100   -0.10143100
Se    7.70348000   15.91630000   12.93095000      0.039728    0.02591700    0.44015800
Se    7.60704000   22.23730000    3.49742000     -0.651064   -1.14645700    0.20357500
Se    7.14337000   22.07550000   13.20590000     -0.422191   -0.37750700   -0.23206000
Se   13.00540000    4.55398000    3.69494000     -0.266747   -1.42959400    0.15151200
Se   12.97719000    4.44549000   13.88863000      0.145395    0.78214500   -0.23648500
Se   12.77736000    9.91005000    3.92393000      1.525065    0.74669600    1.11634100
Se   12.71823000   10.34241000   13.57515000      0.174750   -1.37544700    0.21661100
Se   13.27208000   15.78722000    3.42452000     -0.162958    0.23166500    0.52159200
Se   13.04802000   15.92020000   13.18181000      0.583380   -0.34911200    0.50462900
Se   13.16900000   21.77371000    3.40415000     -0.299337   -0.15432300    0.23915400
Se   13.40661000   21.85493000   13.33632000      0.152782   -0.92939700    0.27727800
Se   19.02828000    3.96582000    3.64260000      0.174688    1.61657100    0.30471900
Se   18.81238000    4.29572000   12.98275000     -0.270387   -0.18038800   -0.12365700
Se   18.74728000   10.03148000    3.91650000      0.129747    0.42971600    0.02946600
Se   18.79086000   10.37675000   13.83994000     -0.096868   -0.16580500    0.05920200
Se   19.27802000   15.97323000    3.60326000     -1.245014    0.71112400   -1.25630600
Se   19.40402000   15.92935000   13.51354000     -0.325698    0.81086400   -0.25843600
Se   18.85332000   21.52963000    3.58435000      0.196146    0.14101700   -0.13037000
Se   19.36281000   21.51871000   13.94414000     -0.607010    0.08548500   -1.07507400
