384
23.23808000 23.23808000 19.51320000
Ge    5.69214000    6.04150000    9.80626000      0.069699   -0.03431600    0.48388200
Ge    6.01699000    5.84315000    0.09545000     -0.619515   -0.41908400   -0.53138100
Ge    5.58241000   11.37661000    9.69254000      0.343649    1.66847200   -0.88103700
Ge    5.81740000   11.79541000   19.42347000     -0.343307    0.77403000    1.24031500
Ge    5.79364000   17.77453000    9.75791000      0.001022    0.49425300   -0.53819100
Ge    6.20178000   18.03056000   19.32565000     -1.290702   -1.24756800   -0.40304600
Ge    5.92564000    0.34520000    9.41615000     -0.390291   -0.91776000    0.00450700
Ge    5.71820000    0.19230000    0.14243000     -0.263448   -0.86148600   -0.11722000
Ge   11.60949000    5.78660000    9.72994000     -1.223932    1.21272500    1.00044100
Ge   11.59974000    6.06134000    0.10173000      0.520813   -0.97565200   -0.45827700
Ge   11.69674000   11.27961000    9.84016000      0.038546    1.14211800   -0.17433000
Ge   11.59616000   11.68913000    0.06221000      0.714290   -1.06817700    0.59634700
Ge   11.84619000   17.53188000    9.80344000      0.871196   -0.22994500   -0.35552200
Ge   11.77398000   17.35240000    0.11069000      0.252672   -0.37318000   -0.49790000
Ge   11.75019000   23.22571000    9.82373000     -0.104555    1.22441300   -0.73581300
Ge   11.69583000    0.02811000    0.12410000     -0.487047    0.49506300    0.83396700
Ge   17.21545000    6.15047000   10.07079000     -0.288745   -0.12152000   -0.34651200
Ge   17.13444000    6.04562000    0.02435000      0.650307   -1.03138900    0.18595400
Ge   17.22280000   11.78447000    9.76137000     -0.111208    1.47003300    0.49001500
Ge   17.72654000   11.44010000    0.09423000     -1.039850   -0.61544900   -0.56075900
Ge   17.44260000   17.49496000    9.82184000      0.080295    0.27496100    1.15713600
Ge   17.31241000   17.21027000   19.05060000      0.028667   -0.85041700    0.63306200
Ge   17.20760000   23.06302000    9.53435000     -0.054148    1.33410800    0.74809200
Ge   17.25954000   23.12338000   19.37372000      0.005838    1.18523400    0.99843300
Ge    0.11548000    5.79239000    9.78009000     -0.517266   -0.12796100   -0.08249300
Ge   23.13054000    5.73268000    0.15655000     -0.516053   -0.14707100   -0.68402100
Ge   23.11440000   11.54498000    9.81496000      0.120172    0.69124100   -0.83243400
Ge    0.07654000   11.62295000   19.48696000      0.326688   -0.74013900    0.62145500
Ge    0.00902000   17.45119000    9.82395000     -0.476866   -1.13047300    0.75728600
Ge   23.16327000   17.33239000   19.43296000      0.571034    0.32219400    0.66004800
Ge    0.02869000   23.02974000    9.59137000      1.597947    1.10955500    0.08150300
Ge    0.08191000   23.05515000    0.06149000      0.115532   -0.09553000   -1.06982100
Ge    3.03061000    5.75258000    7.40075000     -0.700493   -0.72427100   -0.64547300
Ge    2.93410000    5.58337000   17.28266000      0.034429    0.54393000   -1.06709000
Ge    2.66549000   11.86695000    7.02322000      1.992047   -2.08732700    2.35057300
Ge    2.97234000   11.65888000   17.01590000     -0.363176   -0.69570400    1.25200800
Ge    2.83497000   17.32690000    7.41557000      0.535497    1.21760600   -1.03873600
Ge    2.75309000   17.61335000   16.97191000      2.155330   -1.72964100    1.10805000
Ge    2.86843000   23.23074000    7.01095000      0.860799   -0.23891500    0.32478600
Ge    2.97788000    0.16729000   17.11956000     -0.007539   -0.44812600    0.96543200
Ge    8.27739000    5.84396000    7.24209000      0.957731   -0.26031700    0.71826800
Ge    8.70307000    6.07072000   17.06376000     -0.889520    0.12849900    1.01459700
Ge    8.57119000   11.66795000    7.40482000      0.270075    0.26392600   -0.82068800
Ge    8.70309000   11.74418000   17.05339000     -0.747427    0.93687800    1.07907300
Ge    8.93418000   17.70220000    7.64803000      0.302922   -0.33819000   -0.43987900
Ge    8.96621000   17.79568000   16.76112000     -0.525903    1.15225500   -0.26094600
Ge    9.06687000    0.48560000    7.24772000     -0.574691   -0.72948800    0.21330900
Ge    8.58149000   23.10572000   17.08398000      1.226455   -0.53784300    0.01633600
Ge   14.62432000    5.56721000    7.48740000     -0.172502   -0.07260300    0.42744600
Ge   14.43193000    5.98946000   16.94901000      0.300331    0.38275300    0.30874300
Ge   14.59121000   11.29946000    7.29704000     -0.694658    0.58284500    0.25533700
Ge   14.65910000   11.68845000   17.17269000     -0.420484   -0.96959500    0.76878800
Ge   14.88665000   17.86069000    7.43876000     -0.833225   -0.65584500   -0.82733600
Ge   14.37829000   17.13523000   16.92585000     -0.666050   -0.51512400   -0.99307900
Ge   14.25674000   23.04599000    7.08113000      0.760940   -0.16360700    0.65021000
Ge   14.29394000   23.18301000   17.00804000     -0.137462    0.06582100    0.37069300
Ge   20.38218000    5.60404000    7.46811000      0.479817    0.34762200   -0.14664900
Ge   20.19418000    5.63355000   17.07553000      1.031368   -0.10167500    1.02114200
Ge   20.31517000   11.90968000    7.21947000     -1.088475   -0.44221300    1.16869600
Ge   20.62184000   11.49963000   17.18646000     -0.601401   -1.31001800   -0.95017500
Ge   20.38117000   17.17640000    7.57485000     -0.259137    0.20727600   -0.43098600
Ge   20.37218000   17.04938000   16.84915000      1.289220   -0.91651000    1.52135400
Ge   20.57590000   23.09205000    7.42349000     -0.393108   -1.21782700   -0.33698400
Ge   20.16359000    0.01330000   17.14203000     -1.414593    0.68584600   -0.42541500
Ge    2.80150000    3.04526000    4.83934000      0.371568   -0.44206800   -0.01019900
Ge    2.95619000    2.65633000   14.70446000      0.062529    0.58901900   -0.74749600
Ge    2.75640000    8.62477000    4.84697000     -0.427010    0.81218800   -0.43049600
Ge    2.83539000    8.77390000   14.68532000     -0.370605   -1.54140800    0.78678500
Ge    3.14782000   14.37430000    4.83841000     -0.955226    0.60362800   -0.95635000
Ge    3.12036000   14.51650000   14.75351000      1.005491    0.76179100   -1.15732300
Ge    2.69753000   20.23411000    4.69704000      0.265995    0.26993000   -0.52567600
Ge    3.11910000   20.42403000   14.63590000     -0.409311    0.02739600    0.54382900
Ge    8.54173000    2.97541000    4.97158000     -0.862372    1.36184800   -0.06523600
Ge    8.87591000    3.13818000   14.67649000     -1.532642   -0.79030500   -0.16795400
Ge    8.63294000    8.59740000    5.01281000     -1.034329   -0.55048700   -0.61576600
Ge    8.52611000    8.96785000   14.60244000     -0.890902   -1.40611100   -0.80645800
Ge    8.66308000   14.87778000    5.27169000     -0.189330    0.11655200   -1.51541300
Ge    9.08422000   14.71094000   14.58220000     -1.266170   -0.73234200   -0.18980200
Ge    8.89599000   20.67197000    4.91016000     -0.841205   -0.84804100   -0.21890000
Ge    8.52388000   20.50036000   14.26660000      0.645141   -0.19156100   -0.78956800
Ge   14.29185000    2.92703000    4.96113000      0.960257    1.47680700   -0.44046700
Ge   14.48709000    2.87930000   14.71322000     -0.093123   -0.93912300   -0.35022200
Ge   14.37573000    8.36835000    5.10857000     -0.618985    1.35177000    0.34816600
Ge   14.13023000    8.67226000   14.94194000     -0.985113    1.50899300   -1.61737000
Ge   14.48714000   14.41851000    4.96760000      0.149370   -0.16729600   -0.17056900
Ge   14.52169000   14.39725000   14.43447000     -0.986992   -0.59122100   -0.52268000
Ge   14.50500000   20.41022000    4.83229000      1.051710    1.20880800   -0.07149300
Ge   14.83966000   20.15011000   14.68240000     -2.433405    1.92247100    0.72528400
Ge   20.59555000    2.76380000    4.94324000     -0.458981   -0.15801400    1.04734500
Ge   20.20297000    2.88640000   14.17063000      0.440136   -0.55269300    1.91425600
Ge   20.45519000    8.79075000    5.11336000     -0.685257   -0.63256500   -0.54412800
Ge   20.29194000    8.61233000   14.82808000      0.367631    0.64389700   -0.50724200
Ge   20.49579000   14.56879000    4.89812000      0.234428   -0.50629600   -0.21738800
Ge   20.96685000   14.37998000   14.30933000      0.273365   -0.62678800    1.52038000
Ge   20.26965000   20.17309000    4.88453000     -0.677517   -1.30540200   -0.60590800
Ge   20.98831000   20.03270000   14.87965000      0.429663    0.87385300   -0.67241100
Ge    5.64901000    2.89041000    2.36793000     -0.566140    1.57491200    1.29145700
Ge    5.71691000    2.96024000   11.92793000     -1.046744    1.25893100    1.35179400
Ge    5.69264000    8.69690000    2.34130000      0.255193    1.05985100   -1.24795700
Ge    5.63355000    8.80060000   12.19873000      0.514424   -0.34249100    0.23685400
Ge    5.75216000   14.71199000    2.43231000      0.947675   -0.20384200    0.51185400
Ge    5.84021000   14.66609000   12.14986000      0.635473   -0.99227400   -0.24199000
Ge    6.16864000   20.49207000    2.55776000     -0.461911    0.78784200   -0.12053300
Ge    5.45767000   20.66500000   11.96018000      1.331731    0.18134100    0.29692500
Ge   11.55740000    2.82520000    2.46310000      1.647994    0.40611800    0.50168700
Ge   11.77277000    3.09772000   12.40063000     -1.722690   -0.68419800   -1.62914600
Ge   11.34783000    8.69818000    2.67017000     -0.012392   -0.42979500   -1.32673300
Ge   11.61562000    8.42491000   12.31658000     -0.448313    1.55153500    0.32640000
Ge   11.39962000   14.54029000    2.67534000      0.532586    0.10665600   -1.36188000
Ge   11.69110000   14.35017000   12.06915000      0.253945   -0.01747000   -0.55028100
Ge   11.69882000   20.13972000    2.54933000      0.281801   -0.73171800   -0.39335300
Ge   11.85747000   20.39811000   12.26601000      0.728329   -0.29572500   -1.00409100
Ge   17.33807000    2.81507000    2.47159000     -1.247405    0.38089000    0.31327500
Ge   17.19260000    2.67061000   12.10390000      0.480797    0.56337300   -0.05177200
Ge   17.23515000    8.70301000    2.56528000      0.186434   -0.84015900    0.20103400
Ge   17.05591000    9.28744000   12.49281000      1.291054   -1.11261200   -0.07817200
Ge   17.75267000   14.39604000    2.40870000      0.061658   -0.15301200    0.54948600
Ge   17.73982000   14.67731000   12.32527000     -0.639314   -1.06001700   -0.65061000
Ge   17.35647000   20.12262000    2.22794000      0.991551    0.14479400    0.07887100
Ge   17.84381000   20.18367000   12.47886000     -0.525874    0.99830200    0.67626500
Ge   22.97332000    2.80306000    2.45441000      0.884520   -0.64445700    0.07854100
Ge    0.13556000    2.87781000   12.01992000     -0.243901   -1.41697100    0.35632200
Ge   22.90909000    8.74331000    2.47064000     -0.146839   -0.22181400    0.30596800
Ge   23.03212000    8.75348000   12.17399000      0.874015   -1.06144200    1.10192700
Ge    0.30924000   14.58411000    2.51647000     -0.301345   -0.72327400   -0.38791100
Ge    0.51509000   14.10941000   12.13022000     -0.076504   -0.08780600   -0.91991400
Ge   23.08991000   20.10831000    2.21747000      0.552262    0.55610500   -0.01080700
Ge    0.21716000   20.26167000   12.09713000     -0.088949   -0.15436700    0.00630700
Se    1.42444000    1.35980000    1.21545000     -0.424251    0.52745900    0.48659200
Se    1.65384000    1.32713000   10.88827000     -1.139472   -0.48541900   -0.14214700
Se    1.19425000    7.31836000    1.31564000      0.336910   -0.07442600   -0.04587400
Se    1.41431000    7.29209000   11.18839000     -0.144100   -0.25623300   -0.36045200
Se    1.60972000   13.10820000    1.04963000     -0.140479    0.09472900    0.53133300
Se    1.83909000   12.65364000   10.57631000     -0.914953    0.73865100    1.03923700
Se    1.54296000   18.80952000    1.07511000     -1.104528   -0.15052000   -0.03901700
Se    1.56819000   18.44437000   11.25735000      0.319529    0.50230100   -0.25773400
Se    7.23271000    1.53533000    1.46012000      0.777343   -0.73950600   -0.83404900
Se    7.29926000    1.72836000   10.83335000      0.605756   -0.76949700   -0.75188000
Se    7.33981000    7.36349000    1.26985000      0.403827    0.03302600    0.02380700
Se    7.25631000    7.51875000   10.98244000     -0.564841   -0.36084300   -0.27450100
Se    7.39296000   13.15886000    1.51048000     -1.045176   -0.24202300   -0.71181700
Se    7.01777000   12.98492000   10.70925000      0.064439    0.68715900    0.65664600
Se    7.62334000   19.35330000    0.97581000      0.929418    0.25314300    0.93987400
Se    7.11788000   19.49858000   10.71202000     -0.000837   -0.32973100    0.14037600
Se   13.33657000    1.32464000    1.35075000     -1.439404    0.52757000    0.16061600
Se   13.17985000    1.53957000   11.13215000      0.034778   -0.00837000    0.09141100
Se   13.00496000    7.50675000    1.27893000     -0.245680    0.33468800    0.53270700
Se   13.27146000    7.10806000   11.28068000     -0.855107   -0.49874300   -0.88443300
Se   13.01641000   13.10253000    1.44982000     -0.740589   -0.10475400   -0.14000300
Se   13.16423000   13.05537000   10.77508000     -0.234262   -0.75933800   -0.21930700
Se   13.33826000   18.48798000    1.49507000     -0.919763    0.84237700    0.10122100
Se   13.46674000   18.75051000   11.03820000     -0.854843    0.86435400    0.42025500
Se   18.67105000    1.18332000    1.59229000      0.457783   -1.12444000   -1.52555500
Se   18.59663000    1.34293000   10.75423000      0.509909    0.07878300   -0.17128300
Se   18.73752000    7.47057000    1.10348000     -0.291383   -0.22267800    0.31060500
Se   18.63076000    7.59330000   11.29116000     -0.509265    0.26524300    0.47410200
Se   19.21320000   12.74724000    1.20301000      0.437611    1.34475300    0.95157200
Se   18.89382000   12.94423000   11.04916000     -0.082237    0.34199500    0.12491600
Se   18.77058000   18.70194000    0.81034000     -0.238909    0.07593000    0.23044200
Se   19.11732000   18.73491000   11.17413000      0.024688   -0.52984700   -0.49660300
Se    4.34237000    4.62027000    1.33914000      0.294119   -0.31915800   -0.30773000
Se    4.10666000    4.68322000   11.02807000      1.061249   -0.60333800    0.21753900
Se    4.33508000   10.01970000    0.72609000      0.604029    0.24921700    0.75053700
Se    4.12792000   10.19630000   11.02162000     -0.955159   -0.49623700    0.18271700
Se    4.73501000   16.41951000    1.04077000     -0.215538   -0.11322600   -0.18611100
Se    4.46649000   16.22811000   10.95790000     -0.705082   -0.12808900    0.28048300
Se    4.43096000   21.53834000    1.21288000      0.429357    0.84036900   -0.02913100
Se    4.22369000   22.15733000   10.71808000     -0.024380    0.78059800   -0.85446400
Se   10.26601000    4.41132000    1.35783000     -0.591642    0.51828100   -0.86105400
Se    9.99278000    4.45099000   11.02431000      1.604919    0.11339500    0.30447400
Se   10.05225000   10.29922000    1.44914000      0.054767    0.12066600   -0.18829200
Se   10.16020000    9.87007000   10.84422000      0.195836   -0.71803400    0.90082300
Se   10.12267000   16.04865000    1.17370000     -0.146777   -0.27879700    0.46180800
Se   10.42822000   15.94178000   10.83196000     -0.957964    0.02167600   -0.15796900
Se   10.33978000   21.55298000    1.22181000     -0.078354    0.33991200   -0.11691200
Se   10.28792000   21.81652000   11.00704000      0.062335    0.01384800    0.22479100
Se   15.86450000    4.41656000    1.35642000      0.531053   -0.11984800    0.08614800
Se   15.75773000    4.24899000   11.10108000      0.116436    0.82181000   -0.50993500
Se   16.07774000   10.49887000    1.60270000     -0.284948   -0.24216900   -0.37450200
Se   15.80750000   10.18964000   10.70990000     -0.850921   -0.15061000    0.50675700
Se   16.06129000   15.57528000    1.19969000      0.617222    0.69638500   -0.56789000
Se   16.06769000   15.95838000   11.15252000      0.325057    0.47597500   -0.23514300
Se   15.95006000   21.68009000    1.21513000     -1.035937    0.11156400   -0.29386000
Se   16.25947000   21.66912000   11.11883000     -0.573083   -1.13002600    1.20950000
Se   21.50095000    4.09129000    1.03317000      0.557890    0.42324500    0.26246500
Se   21.76943000    4.16447000   10.88067000      0.407887    0.74272100   -0.40134800
Se   21.66574000   10.41411000    1.28929000      0.158741   -0.20045600   -0.04393900
Se   21.63243000   10.03063000   10.89179000     -0.862454    0.44514200   -0.39278600
Se   21.91965000   15.72482000    1.20709000     -0.244150    0.39536000   -0.04624600
Se   22.06282000   15.46809000   10.97686000      0.358370    0.55708700   -0.23423600
Se   21.65507000   21.68536000    1.00029000     -0.035034   -0.50319300    0.29309700
Se   21.92804000   21.29604000   10.39502000     -0.007534   -0.30355500    1.34866900
Se    1.56053000    4.19656000    8.64710000      0.048155    0.69592000   -0.11666700
Se    1.55514000    4.27993000   18.64748000     -0.468401   -0.56473400    0.19854000
Se    1.34782000   10.29709000    8.42650000      0.432643   -0.32479700   -0.73618100
Se    1.40350000   10.03388000   18.22887000      0.169919    0.85142200   -0.37600200
Se    1.27397000   16.02533000    8.43175000     -0.547213   -1.11368500    0.52391100
Se    1.58803000   15.98157000   18.41124000      0.364002    0.05402500   -0.81336300
Se    1.41086000   21.62648000    8.11579000     -0.063970    0.58431700    0.25382100
Se    1.72834000   21.62928000   18.34403000     -0.110533    1.15700500    0.20014400
Se    7.04719000    4.41598000    8.69236000     -0.095249    0.05037100   -0.09810500
Se    7.36572000    4.37866000   18.26581000      0.045121    0.55075500    0.10570900
Se    7.21534000   10.13689000    8.55655000      0.096824   -1.03122100   -0.14107000
Se    7.04477000   10.30175000   18.14385000      0.724123    0.17484900   -0.61363900
Se    7.45770000   16.27428000    8.90009000     -0.129755    0.01972700   -0.38344200
Se    7.44126000   16.56060000   17.91420000     -0.636677   -1.39779900    0.85189200
Se    7.29305000   22.05415000    8.05452000      0.370365    0.53412500    0.64690900
Se    6.92485000   21.81684000   18.30913000      0.438792    0.39963000   -0.15656200
Se   12.92634000    4.25810000    8.69915000      1.091084   -1.08060200   -0.73246100
Se   13.23776000    4.59558000   18.32742000     -1.236307   -0.68926200    0.84058500
Se   12.92066000    9.75952000    8.57266000      1.025772    0.45060800   -0.85299200
Se   12.84014000   10.20194000   18.05870000      0.046045    0.90745200    0.55162400
Se   13.31145000   16.31003000    8.22727000     -0.678131   -0.06132900    0.96394400
Se   13.25962000   15.71653000   18.53488000     -0.205760    0.08412300   -0.37722400
Se   12.56144000   21.67754000    8.10721000      0.408681    0.07294500    0.67349200
Se   12.69538000   21.77699000   18.26434000      1.428979   -0.76991800   -1.26985400
Se   18.70141000    4.62165000    8.86280000     -0.137431   -0.45134000    0.02012900
Se   18.42317000    4.42677000   18.13336000     -0.220272    0.33678700    0.58190700
Se   18.50175000   10.47784000    8.46543000      1.965272   -0.80567500   -1.32818700
Se   19.01730000    9.86594000   18.28465000     -0.005663    0.97098400   -0.25412000
Se   18.58177000   15.93504000    8.55053000      0.554871   -0.77970000   -0.16088500
Se   18.73341000   15.50403000   17.66646000     -0.435440    0.86818500    0.58233400
Se   18.61929000   21.72914000    8.37128000      1.672351   -0.62695000   -1.03920500
Se   18.42500000   21.70345000   17.99101000      1.480993   -0.05627000   -0.23048300
Se    4.24633000    1.66746000    8.30323000     -0.164896   -0.69626000   -0.17185300
Se    4.47778000    1.77443000   18.35562000     -0.516734   -0.60992100   -0.17701800
Se    4.11255000    7.42835000    8.62654000      0.312001    0.25424600    0.07464200
Se    4.44080000    7.12030000   18.25750000      0.162050    0.37189400    0.20377200
Se    4.60327000   13.03241000    8.17447000     -0.803355   -0.81469600    0.25452800
Se    4.00845000   13.23343000   18.49306000      0.988156   -0.29225500   -0.33867800
Se    3.96266000   19.08562000    8.58692000      0.943237   -0.87749400    0.13910400
Se    4.38851000   19.09693000   18.12512000     -0.281837   -0.00192300    0.03086200
Se   10.60669000    1.92756000    8.43143000     -0.511561   -1.32481300    0.48993200
Se   10.04349000    1.32056000   18.53568000     -0.527660    0.14140300   -0.40879600
Se   10.06455000    7.16032000    8.20487000      0.236641    0.14769200    0.65165200
Se   10.11501000    7.50610000   18.41118000     -0.163149   -0.18133700   -0.00941600
Se   10.09334000   12.82143000    8.82076000      0.285549    0.26682300   -0.29547500
Se   10.05252000   13.14732000   18.63909000     -0.766998   -0.06379500   -0.95805500
Se   10.33403000   19.16924000    8.90565000     -0.024563   -0.23497600   -0.18701800
Se   10.72628000   18.83007000   17.98962000      0.167273    0.70033400    0.34775000
Se   15.32405000    1.12140000    8.81625000      0.249882    0.04667200   -0.19998500
Se   15.78710000    1.46009000   18.25942000     -0.072373   -0.33009200    0.22426700
Se   15.53680000    7.38133000    8.70381000      0.890840   -0.55470500    0.47790900
Se   15.53605000    7.53160000   18.71120000     -0.112564   -0.28059600   -1.04678500
Se   15.68470000   13.13840000    8.54394000     -0.121630   -0.36452000   -0.20650400
Se   15.84975000   12.91680000   18.87087000      0.368785   -0.02847800   -0.65209300
Se   16.33097000   19.22351000    8.62947000      0.090665    0.49526500    0.10215500
Se   15.59174000   18.67478000   18.14514000      1.049240    0.59609100    0.41621600
Se   21.78285000    1.41740000    8.68543000      0.289942   -0.32297700    0.22979800
Se   21.78839000    1.31152000   18.27496000      0.377227    0.16466600    0.42250700
Se   21.91944000    7.19281000    8.38326000      0.263199   -0.28983800    0.57110700
Se   21.89094000    7.14195000   18.13446000     -0.521460   -0.75430000    0.32556600
Se   21.78485000   13.21988000    8.55669000      0.303494   -0.23671000    0.39641200
Se   21.80409000   13.03196000   18.42353000      0.124147    0.86881500   -0.09145500
Se   21.65926000   18.82292000    8.73164000     -0.216235    0.07192500   -0.06910500
Se   21.61884000   18.78390000   18.36861000     -0.209639   -1.12214000   -0.44865900
Se    1.33460000    1.44519000    5.99774000      0.055751    0.63265600   -0.29624300
Se    1.36558000    1.38697000   15.92171000     -0.026874    0.17215600   -0.08450700
Se    1.39549000    6.99915000    6.05054000      0.516178    0.17443500   -0.05714200
Se    1.36673000    7.05327000   16.04499000      1.038052    0.61717400   -0.37912100
Se    1.43961000   13.41013000    6.10173000     -2.253246    1.11286200   -0.80326900
Se    1.62163000   13.17302000   15.86667000     -1.168121   -0.15646000    0.09085400
Se    1.32568000   18.76218000    6.09127000      0.519255   -0.02622500   -0.33233300
Se    1.40295000   19.09512000   16.02277000     -0.489551    1.46727900   -1.31939500
Se    7.14771000    1.53496000    6.29482000      0.630700    0.48780500   -0.40842000
Se    7.25028000    1.33163000   15.91089000      0.336764    1.42399300   -0.79357700
Se    6.83918000    7.41101000    6.31988000      0.457598    0.53004700   -0.77198300
Se    7.13876000    7.44895000   15.96832000     -0.047035    0.20710800   -0.38893600
Se    7.19647000   13.41397000    6.22144000     -0.424634   -1.08946200    0.90007000
Se    7.42103000   13.59869000   16.08675000      0.788144   -0.19075800   -0.37710200
Se    7.52017000   19.06589000    6.30847000     -0.127169    0.57459100   -0.26362700
Se    7.20476000   19.02681000   15.47488000      0.291136   -0.32413200    0.64262300
Se   12.91751000    1.37247000    5.94291000     -0.960969   -0.15798600    0.17021100
Se   12.90198000    1.35372000   15.64913000      0.033850   -0.01922700    0.40080300
Se   12.93111000    6.88343000    6.53387000      0.288581    0.96816200   -1.18901600
Se   12.56665000    7.24046000   15.88879000      0.655907   -0.68151800    0.21162200
Se   13.05285000   12.95494000    6.19755000      0.096275   -0.31824100    0.12020300
Se   13.15620000   12.90043000   15.86433000     -0.019656    0.53496200   -0.71920900
Se   13.22423000   19.02348000    6.13095000     -0.502455   -0.21610900    0.41081200
Se   13.09244000   18.50446000   15.24984000      0.673894    0.29633000    0.80373900
Se   19.19777000    1.32890000    6.29781000     -1.002017    0.36797900   -0.64433600
Se   18.68138000    1.76327000   15.80869000      0.947576   -0.81898000    0.04151700
Se   19.10504000    7.12643000    6.14447000     -0.685419   -0.24766500    0.25390700
Se   18.88702000    7.15569000   16.03493000     -1.424812    0.97682800   -0.71036700
Se   18.86076000   13.28193000    5.97777000     -0.276822   -0.42217000    0.05711200
Se   19.42444000   13.05250000   15.75806000     -0.220938   -0.03359800   -0.11648500
Se   19.05507000   18.18582000    5.87939000     -0.139406    1.34495000   -0.11996100
Se   19.29926000   18.73632000   15.82142000     -1.384151    0.65886100   -0.53365400
Se    4.54549000    4.38892000    6.02523000     -0.992497    0.05062500   -0.13745000
Se    4.39488000    4.26086000   15.76427000     -0.437364   -0.05276200    0.41324900
Se    4.15742000   10.23166000    6.11027000     -0.194426   -0.36809600   -0.60351600
Se    4.38506000   10.17120000   15.85341000      0.245821    0.02566200   -0.14448300
Se    4.31495000   15.78403000    6.22535000      1.172944    1.11343600    0.76166600
Se    4.43431000   16.39712000   15.52531000     -0.806553   -0.13172000    0.59793000
Se    4.26070000   21.82878000    5.55889000     -0.245064    0.30940200    0.81416200
Se    4.52567000   22.16189000   15.78483000     -0.262587   -0.72960800   -0.55956400
Se    9.97201000    4.55607000    6.14394000     -0.502323   -0.49259100   -0.31567800
Se   10.14203000    4.51062000   16.17857000      1.034962   -0.78068800   -0.73143100
Se   10.01151000   10.29604000    5.79850000     -0.160428    0.71783600    0.96992800
Se    9.97825000   10.19666000   15.87376000      1.630517    0.36545500    0.10490400
Se   10.29250000   16.18574000    6.19604000      0.542120    0.66468200    0.97333300
Se   10.28761000   16.59127000   15.30135000      1.132841   -0.69283200   -0.15732500
Se   10.34962000   22.31898000    5.62693000      0.503349    0.30900000    0.79598100
Se   10.16618000   21.68070000   15.39449000     -0.348120    0.72246400    1.32046200
Se   16.03053000    4.16341000    6.23499000     -0.311849   -0.28680500   -0.14285600
Se   15.96443000    4.24190000   15.86048000      0.188189    1.09836400    0.69168500
Se   16.10326000   10.11649000    5.87781000     -1.043369   -0.56626700    0.24763900
Se   15.69594000    9.67142000   16.31497000      1.110223    0.69973300    0.07079200
Se   15.82120000   16.07937000    6.12670000      1.111334   -0.11247300   -0.31047900
Se   15.94611000   15.75981000   15.57331000      0.531266    0.77071500    1.12799300
Se   16.08291000   21.92738000    6.00423000     -0.981659   -0.34200000   -0.11554400
Se   16.01275000   21.88277000   16.01132000     -0.645380   -0.70385400   -0.44363600
Se   22.02219000    3.99573000    6.48491000     -0.798916    0.59994600   -0.30949000
Se   21.55368000    4.21046000   15.89279000      0.475652   -0.58978300   -1.04118600
Se   21.75358000   10.22504000    6.50541000      0.650959   -0.43439500   -0.55644800
Se   22.09034000    9.91973000   15.87136000     -1.040153    0.20921500    0.36685200
Se   21.81451000   15.81342000    6.33492000      1.290619   -0.06498200    0.32258500
Se   22.19225000   15.65740000   16.11018000     -0.191406    0.20064500   -1.03011000
Se   21.88299000   21.30173000    6.07021000      0.137599    1.21590500    1.02375000
Se   21.87667000   22.14365000   16.05652000      0.572057   -1.30959200   -0.51780300
Se    4.04482000    1.46485000    3.40344000     -0.044049    0.32411300    0.43904500
Se    4.34069000    1.35243000   13.18565000      0.236392    0.32572200    0.08191800
Se    4.02580000    7.38915000    3.12042000     -1.222476   -1.10311400    1.31834000
Se    4.37076000    7.28529000   13.55055000     -0.095807    0.12501900    0.02504000
Se    4.30520000   12.83384000    3.57526000      0.864944    0.76409900   -0.45359000
Se    4.72190000   13.05750000   13.59050000     -0.414911    0.70132400   -0.05449900
Se    4.80979000   18.99810000    3.89959000     -0.362410   -0.02934000   -0.06915500
Se    4.23687000   18.95601000   13.07271000      0.073762   -0.10985400    0.68727300
Se    9.93339000    1.54391000    3.73499000      0.713738   -0.40857600   -0.69088800
Se   10.12811000    1.61375000   13.33326000      0.180976   -0.03713000    0.47104800
Se   10.13910000    7.04556000    3.80834000     -0.770798    0.05308500    0.50145400
Se    9.79560000    7.17606000   13.37646000      0.055192    0.73232500    0.29550600
Se    9.86762000   13.28384000    3.83586000     -0.334075   -0.24763300    0.47924100
Se   10.40377000   13.00412000   13.48764000     -0.484039   -0.18979900    0.43602400
Se    9.95844000   18.85064000    3.67669000      0.486702    0.62555700    0.20959700
Se   10.23311000   18.93630000   13.02807000     -0.909295    0.34698000    0.47604300
Se   15.76450000    1.50301000    3.79640000      0.496633   -0.11229300   -0.47503400
Se   16.01303000    1.27657000   13.58492000     -0.515046    0.37295900    0.17423200
Se   15.88521000    7.12991000    3.87553000      0.601458   -0.69894000   -0.80016300
Se   15.51155000    7.60041000   13.30336000      0.347167   -0.34638400    0.21047900
Se   16.22064000   13.00532000    3.94955000      0.103502    0.72170400   -0.30352400
Se   16.10348000   13.06016000   13.15765000     -0.041019    0.32450900    0.30219700
Se   16.13294000   19.00000000    3.87862000     -0.137043   -1.36661100   -0.26791200
Se   16.43186000   18.78906000   14.03830000      1.772012   -1.14686900   -1.72777700
Se   21.79279000    1.11288000    3.86231000      0.722044    0.28239400   -1.04089600
Se   21.92023000    1.37310000   13.46080000      0.060411    0.46156500   -0.61309900
Se   21.44956000    7.16033000    3.66644000      0.628233    0.83512200   -0.13355900
Se   21.57628000    7.16553000   13.36870000      0.343720    0.52179300   -0.03045900
Se   22.13586000   13.13711000    3.90710000     -0.111526    0.01379600   -0.40552600
Se   22.23958000   12.61710000   13.30967000     -0.085007    0.53998200   -0.01061600
Se   21.93284000   18.71499000    3.72343000     -0.530454    0.18898400    0.01110100
Se   22.26815000   18.56447000   13.32914000     -0.424707    0.90922200    0.54601000
Se    1.19944000    4.40992000    3.68343000     -0.343742   -0.13533400   -0.28999700
Se    1.44377000    4.13190000   13.47831000      0.381277    0.75262400    0.28795500
Se    1.07126000   10.21532000    3.70915000      0.724149   -0.83548000    0.52998900
Se    1.54432000   10.17178000   13.33023000     -0.832735    0.16525200   -0.47731800
Se    1.89121000   16.03324000    3.47518000      0.238056   -0.22292000    0.34914200
Se    1.62925000   15.80640000   13.26375000      0.556180   -0.22991200    0.74710900
Se    1.38220000   21.72810000    3.17498000      0.337161   -0.71797500    0.77779300
Se    1.66731000   21.79712000   13.32536000     -0.620883    0.20808900   -0.27195200
Se    6.96633000    4.48804000    3.78415000      0.209685   -1.08566300   -0.24735200
Se    7.36747000    4.44778000   13.11150000     -0.170625   -0.40092500    0.54863600
Se    7.07929000   10.00839000    3.62788000      0.787641    0.49233800    0.72808500
Se    7.05299000   10.37261000   13.29531000      0.439923    0.07549000    0.33469700
Se    7.13071000   16.26813000    3.95394000     -0.328921   -0.79877800   -0.33153400
Se    7.72392000   15.91594000   12.95031000     -0.255910    0.10920500    0.22510800
Se    7.60967000   22.25367000    3.57240000     -0.623713   -1.39372900    0.08599700
Se    7.09873000   22.08815000   13.17078000     -0.342929   -0.48086900   -0.14651900
Se   12.99498000    4.55975000    3.71323000     -0.337197   -1.43359100    0.03497100
Se   12.93804000    4.44825000   13.84161000      0.423560    0.66793300   -0.05125800
Se   12.78638000    9.94197000    3.92064000      1.418693    0.53281000    1.04646200
Se   12.71881000   10.34082000   13.60494000      0.213420   -1.60970500    0.14434900
Se   13.26691000   15.78321000    3.40167000      0.156619    0.55674100    0.71184400
Se   13.04212000   15.89511000   13.12877000      0.831260   -0.05926300    0.72318600
Se   13.19016000   21.78125000    3.43350000     -0.167446   -0.00486200    0.16907800
Se   13.39303000   21.79978000   13.35621000      0.413921   -0.43814700    0.42801600
Se   19.00266000    3.98705000    3.67478000      0.105091    1.30400500    0.32733400
Se   18.82482000    4.28548000   12.94849000     -0.384881    0.16996500   -0.23756500
Se   18.74895000    9.98355000    3.85628000      0.538215    0.71752500    0.42267400
Se   18.82027000   10.36299000   13.88427000     -0.289540   -0.22311800   -0.21690000
Se   19.29322000   16.00553000    3.57794000     -1.286185    0.09920100   -1.18158400
Se   19.36490000   15.90685000   13.51452000     -0.140361    0.71255200   -0.09819900
Se   18.83809000   21.58246000    3.56234000      0.221541   -0.08846200   -0.12419200
Se   19.33477000   21.52124000   13.97016000     -0.414773    0.05882500   -1.03527500
