384
23.23808000 23.23808000 19.51320000
Ge    5.65366000    6.15765000    9.74731000      1.085689    0.00388900    0.91317400
Ge    6.07390000    5.86369000    0.05733000     -1.185224   -1.66957900   -0.24656800
Ge    5.50895000   11.40077000    9.69742000      2.260926    1.12932200   -0.72408200
Ge    5.84134000   11.73524000   19.47787000      0.753209    0.76573100    0.55639800
Ge    5.74241000   17.83592000    9.69373000     -0.153803    0.20848500    0.24108300
Ge    6.11086000   17.99104000   19.37136000     -0.037406   -0.69001200   -0.65377500
Ge    5.83110000    0.39579000    9.39797000      0.472622   -1.40976800    0.21804000
Ge    5.75358000    0.18232000    0.04236000     -0.512524   -1.12627500    0.67211900
Ge   11.53174000    5.79712000    9.76366000      0.839577    1.55002000   -1.02966500
Ge   11.62098000    6.10079000    0.04260000      0.244543   -0.96538800   -0.26371200
Ge   11.68921000   11.35608000    9.80371000     -0.121802    0.69445900   -0.10248800
Ge   11.60713000   11.62769000    0.11187000      0.657821    0.12710400    0.68272000
Ge   11.88717000   17.58082000    9.74385000      0.190206   -0.77392600   -0.01493700
Ge   11.78834000   17.37918000    0.02130000     -0.226136   -0.14499800   -0.09543100
Ge   11.81653000    0.11751000    9.75588000     -0.675400    0.37490700   -0.43105100
Ge   11.69873000    0.05849000    0.14106000     -0.499051   -0.50610300    0.47928400
Ge   17.28258000    6.15309000   10.07427000     -1.159703   -0.16344700   -0.64885800
Ge   17.20572000    6.00664000    0.03898000      0.388939   -0.03338400    0.22401400
Ge   17.11407000   11.76230000    9.78060000      0.552800    0.81774600   -0.14253200
Ge   17.65468000   11.40463000    0.00813000     -0.133486    0.16112700    0.09588100
Ge   17.46933000   17.52684000    9.97263000      0.026943   -0.79116600   -0.69580200
Ge   17.32041000   17.20261000   19.09095000      0.044859   -0.90308700    0.17186400
Ge   17.16050000   23.11889000    9.53082000      1.514643   -0.82209600    1.09275500
Ge   17.26195000   23.16553000   19.44234000     -0.168213    0.57958900    0.89397200
Ge    0.12673000    5.75383000    9.78920000     -0.890156   -0.02970500    0.23277700
Ge   23.18957000    5.73294000    0.17611000     -0.529081   -0.48200600   -0.31483300
Ge   23.08112000   11.50935000    9.76229000      1.697092    0.84196100   -1.06128000
Ge    0.11417000   11.60858000   19.49473000     -0.213649   -0.56522400    0.84338200
Ge    0.06461000   17.50163000    9.85078000     -1.341352   -1.18786800    0.77013300
Ge   23.23157000   17.31557000   19.49040000     -0.767754    0.88045600    0.28829700
Ge    0.14624000   23.01829000    9.60593000     -0.239362    1.31649100   -0.31296400
Ge    0.04136000   23.09964000   19.47730000     -0.501790   -0.55560100   -0.56152900
Ge    2.99778000    5.86646000    7.37773000     -0.558524   -2.10750800   -1.05716000
Ge    2.98531000    5.61344000   17.28097000     -0.565265    0.17003600   -1.25939600
Ge    2.78484000   11.82806000    7.09637000     -0.264310   -0.20507800    1.28542600
Ge    2.94408000   11.64674000   17.11696000     -0.448592   -0.35299800    0.67044800
Ge    2.75025000   17.28772000    7.41816000      1.102015    1.20758300   -1.20505800
Ge    2.78708000   17.52669000   16.93208000      1.333149    0.42206000    0.03278100
Ge    2.82557000    0.03634000    6.91855000      1.550647   -1.27778500    0.90316800
Ge    2.99726000    0.18512000   17.09308000      0.092505   -0.66953800    1.60523300
Ge    8.23544000    5.71001000    7.14657000      2.336203    0.57342900    0.60536700
Ge    8.70311000    5.96524000   17.07418000     -1.115471    2.01759100    1.24255100
Ge    8.57954000   11.61095000    7.36911000     -0.418592    0.15762800    0.29631300
Ge    8.75095000   11.74060000   17.09511000      0.015294    0.35018100    0.59271400
Ge    8.88885000   17.57726000    7.59873000      0.109129    1.05966000    0.22304800
Ge    9.03849000   17.79378000   16.76298000     -0.420080    0.69297300   -0.41996300
Ge    9.01139000    0.53616000    7.31165000      0.843116   -0.92795800    0.31552100
Ge    8.59726000   23.18166000   17.04322000      1.485459   -1.11247900   -0.02410000
Ge   14.75457000    5.56374000    7.52696000     -1.281344    0.44417000    0.79311900
Ge   14.38208000    6.03527000   16.90342000      1.090574    0.07078200    0.59865800
Ge   14.61198000   11.27875000    7.34720000     -1.086013    0.44052900   -0.32402500
Ge   14.68634000   11.68324000   17.25249000     -0.740417   -1.23771500   -0.10700500
Ge   14.90007000   17.82170000    7.35130000     -0.890309    0.19337600    0.21084500
Ge   14.33632000   17.16477000   16.85606000     -0.522293   -0.35436900   -0.75216700
Ge   14.33706000   23.03750000    7.07894000     -1.453543    0.50665500    0.42397300
Ge   14.28393000   23.20028000   17.08442000     -0.142745    0.39693200   -0.11462800
Ge   20.40932000    5.70265000    7.44844000      0.442749   -1.71323900    0.66580500
Ge   20.26472000    5.63842000   17.18671000     -0.271748    0.22466700   -0.14456500
Ge   20.25690000   11.84807000    7.22069000     -1.242480    0.12766100    1.37873700
Ge   20.67713000   11.40397000   17.20141000     -0.762323   -0.97486100   -1.07695000
Ge   20.34147000   17.27978000    7.55639000      0.853997   -0.86619200    0.33123300
Ge   20.38379000   16.97810000   16.89384000      0.370893    0.26300700    1.40997000
Ge   20.53623000   23.06000000    7.41031000      0.457224   -0.57694500    0.06073200
Ge   20.16494000    0.03776000   17.05755000     -1.517628    0.39701800   -0.25768600
Ge    2.73330000    3.04991000    4.78925000      0.975614   -0.80599300    0.21401700
Ge    3.02571000    2.68480000   14.65471000     -0.464646    0.49810400   -0.03680700
Ge    2.64037000    8.62129000    4.82770000      1.128203    0.87249300   -0.55309600
Ge    2.86628000    8.75120000   14.70618000     -0.543217   -1.28111800    0.90010200
Ge    3.06935000   14.31834000    4.84058000     -0.938152    1.61702400    0.03744900
Ge    3.16654000   14.52451000   14.67593000     -0.227584    0.25342600   -0.69264300
Ge    2.66032000   20.16085000    4.74012000      1.418040    1.35621400   -1.20327600
Ge    3.14507000   20.50821000   14.63325000     -0.720928   -0.46805300    0.57881100
Ge    8.53505000    2.93599000    4.89226000     -0.262341    0.62502300    0.28446500
Ge    8.80323000    3.21327000   14.78695000     -1.268935   -1.99359100   -1.67827300
Ge    8.64024000    8.55853000    4.95906000     -0.468613    0.09596600   -0.26473700
Ge    8.51067000    8.96828000   14.61492000      0.627965   -1.40190800   -0.26752400
Ge    8.63189000   14.94768000    5.26436000      0.429098   -1.71256600   -1.09208600
Ge    9.02036000   14.71898000   14.60810000      0.244997   -0.23461400   -0.49010000
Ge    8.94177000   20.63104000    4.97579000     -0.738832   -0.02267600    0.13280200
Ge    8.52455000   20.53556000   14.16368000      0.243657   -0.16480400   -0.51884100
Ge   14.25028000    2.98114000    4.90694000      0.807578   -0.02131800    0.66614200
Ge   14.41756000    2.82394000   14.64456000      0.225622    0.19375800   -0.21521500
Ge   14.35728000    8.42904000    5.10365000     -0.220556    0.70228900    0.39802600
Ge   14.11844000    8.69445000   14.93472000     -0.225342    1.65225900   -1.67366600
Ge   14.48156000   14.43541000    4.94894000     -0.835835   -0.91314300   -0.12391500
Ge   14.42603000   14.37732000   14.44074000     -0.731649   -0.14989100   -0.08931400
Ge   14.61519000   20.40613000    4.80931000      0.527165    0.29898900   -0.34153600
Ge   14.82425000   20.16952000   14.72816000     -2.151282   -0.40136500   -0.34022800
Ge   20.60075000    2.72751000    4.95377000     -1.172967    0.69150500    1.26187800
Ge   20.19611000    2.91069000   14.19873000      0.456368   -0.69945900    1.42995300
Ge   20.45798000    8.68276000    5.07994000     -0.111780    0.92613900   -0.25305000
Ge   20.33337000    8.62901000   14.88131000     -0.290128   -0.07106800   -0.77573200
Ge   20.54416000   14.63146000    4.95288000     -1.494984   -0.26407800   -1.60884600
Ge   20.96046000   14.34697000   14.40934000      0.574763    1.13492200    0.38170100
Ge   20.23114000   20.16807000    4.80194000      0.458661    0.05677800    0.29564400
Ge   21.01238000   20.07075000   14.84943000      0.073143    0.82372300   -0.35294200
Ge    5.53386000    2.91864000    2.40770000      0.316131    0.02046400    0.47032900
Ge    5.60733000    3.01415000   11.97776000      0.923923    0.63916600    0.37610100
Ge    5.72155000    8.72492000    2.35050000     -1.398802    0.18746600   -0.06870700
Ge    5.68926000    8.76544000   12.17312000     -0.188845    0.18490800    0.62285200
Ge    5.72469000   14.67085000    2.36152000      1.216900   -0.31217800    1.24838500
Ge    5.79985000   14.66321000   12.17869000      1.072501   -0.21746900   -0.66963800
Ge    6.25011000   20.49230000    2.55880000     -0.478540    0.23127400    0.28570300
Ge    5.36266000   20.63812000   12.01693000      1.606637    1.01930200   -0.50892100
Ge   11.63335000    2.80668000    2.43221000      0.405799    0.91088800    0.91487900
Ge   11.70884000    3.02854000   12.30579000     -2.209650    0.37338100    0.12813000
Ge   11.40389000    8.70469000    2.59984000     -0.343135    0.53720500   -0.09412800
Ge   11.70859000    8.40235000   12.23626000     -0.113178    0.96273500    0.53257700
Ge   11.42062000   14.63758000    2.58918000     -0.194930   -1.05509500   -0.22995300
Ge   11.70469000   14.35231000   12.02383000     -0.588381   -0.92699500   -0.71889200
Ge   11.76712000   20.23306000    2.53310000     -0.055341   -1.16382100   -0.42007400
Ge   11.90480000   20.41718000   12.23520000      0.503065   -0.48118500   -1.56146400
Ge   17.27362000    2.81181000    2.45476000     -0.579761    0.60212800    0.94845500
Ge   17.17718000    2.72383000   12.16647000      0.260421    0.07895500   -1.08839800
Ge   17.29849000    8.61071000    2.58714000     -0.981456   -0.09573800   -0.31821800
Ge   17.10195000    9.15731000   12.47883000      1.429265   -0.28547000    0.12334600
Ge   17.65220000   14.37698000    2.33850000      0.909937    0.27668600    0.75155400
Ge   17.69584000   14.50366000   12.35733000     -0.702338    0.38628200   -0.04287200
Ge   17.39296000   20.14845000    2.19139000      0.678173    0.43955900    0.18339000
Ge   17.91014000   20.24638000   12.45423000     -1.294103    0.77319700    0.82539600
Ge   23.03635000    2.73100000    2.45122000      0.101722   -0.41604200   -0.08449600
Ge    0.13486000    2.82538000   12.02755000     -0.082042   -0.50348800    0.72435100
Ge   22.83950000    8.75484000    2.52919000     -0.055268   -0.52755800   -0.23274300
Ge   23.03052000    8.75354000   12.15553000      0.489425   -0.35705300    1.07896700
Ge    0.34300000   14.61938000    2.52637000     -0.799537   -0.89986200    0.05750300
Ge    0.46861000   14.05095000   12.07231000      0.091814    0.74701800   -0.84259500
Ge   23.12549000   20.07319000    2.19766000      0.169702    1.08209600    0.14210900
Ge    0.23479000   20.37106000   12.08504000     -1.173918   -1.33985600   -0.35329500
Se    1.40285000    1.33655000    1.18553000     -0.185676    0.45207200    0.42673500
Se    1.58170000    1.28930000   10.89349000      0.048759   -0.29601900   -0.09215300
Se    1.12890000    7.39649000    1.32218000      0.617801   -0.10293100   -0.04816200
Se    1.37357000    7.28210000   11.20102000      0.161944   -0.31132100   -0.44099800
Se    1.55548000   13.12240000    1.10263000      0.601507   -0.12590500    0.32130200
Se    1.81728000   12.68281000   10.60323000     -0.990974    0.24759500    0.63713700
Se    1.55670000   18.79051000    1.08808000     -0.520254   -0.15314500    0.09222300
Se    1.56490000   18.54748000   11.25546000      0.653109    0.45241200   -0.11014200
Se    7.18280000    1.46060000    1.41268000      0.157219    0.31353000   -0.04198300
Se    7.24397000    1.64923000   10.86525000     -0.221538    0.09859900   -0.27790400
Se    7.25283000    7.36553000    1.29705000      1.776857   -0.12210000   -0.05270600
Se    7.24918000    7.54312000   10.97595000     -0.053735   -0.73636200   -0.62031200
Se    7.37854000   13.16897000    1.60505000     -0.641986   -0.74322000   -1.01026600
Se    6.99557000   13.00606000   10.74928000     -0.080049    0.39374800    0.35417400
Se    7.72227000   19.22255000    1.02158000     -0.106260    0.06458000    0.65190200
Se    7.02810000   19.56210000   10.76298000      0.325935   -0.76237300   -0.32412800
Se   13.23711000    1.45058000    1.35953000     -0.042079   -0.23978800   -0.24545900
Se   13.08785000    1.56641000   11.23217000      1.427668   -0.69538500   -0.49266200
Se   12.98845000    7.53839000    1.30670000      0.453842   -0.04690600    0.04658600
Se   13.31642000    6.94148000   11.19277000     -1.149582    0.18446700   -0.32972200
Se   13.02510000   13.19288000    1.51162000     -0.751363   -0.75045000   -0.70670600
Se   13.21289000   13.01294000   10.65943000     -0.535642   -0.09329600    0.42611800
Se   13.31447000   18.56421000    1.36738000     -0.638289    1.03785800    0.56189800
Se   13.48931000   18.66446000   11.10055000     -0.849672    1.01279800    0.34371300
Se   18.68513000    1.20990000    1.63350000      0.367007   -1.06129500   -1.46877000
Se   18.58662000    1.31480000   10.73200000      0.109625    0.64180300    0.39027300
Se   18.79008000    7.56109000    1.09458000     -0.246494   -0.90573800   -0.17801200
Se   18.64331000    7.53695000   11.32618000      0.150591    0.56967900    0.70801600
Se   19.16679000   12.84717000    1.11173000     -0.174279    0.55344600    0.53532500
Se   18.82411000   12.93639000   11.06577000      0.250813   -0.51434100   -0.47315200
Se   18.74364000   18.71271000    0.79165000      0.256240    0.12938800    0.24495800
Se   19.07688000   18.72051000   11.18697000      1.210702   -0.36645500   -0.12452800
Se    4.30062000    4.62921000    1.33541000      0.603001   -0.04662600   -0.42537500
Se    4.22616000    4.76400000   10.97323000     -0.180052   -0.80493900    0.59363200
Se    4.45445000   10.00596000    0.73713000     -0.436368   -0.16979000    0.76396200
Se    4.19658000   10.22499000   11.03515000     -1.770917   -1.15285100    1.06550800
Se    4.71009000   16.33192000    1.09573000     -0.630767    0.50842200   -0.55571300
Se    4.40068000   16.24105000   10.96553000     -0.105068    0.01424800    0.23535500
Se    4.48633000   21.47285000    1.25027000      0.403022    0.96328200   -0.35087800
Se    4.25098000   22.14181000   10.64333000     -0.588896    0.63444200   -0.64685000
Se   10.35302000    4.40801000    1.33912000     -0.695342    0.68649000   -0.83809500
Se   10.12576000    4.52835000   10.98932000     -0.592581   -1.04523400    1.17404700
Se   10.02039000   10.33328000    1.43156000      0.228700   -0.22330800    0.06290000
Se   10.26459000    9.79207000   10.83093000     -0.053541   -0.30620000    0.54821500
Se   10.16936000   16.09078000    1.20602000     -0.524524    0.21685600   -0.10035900
Se   10.38664000   15.93818000   10.79583000     -0.099451    0.19954700   -0.24530900
Se   10.33342000   21.55173000    1.21210000      0.052220    0.58006400   -0.08836000
Se   10.38467000   21.86695000   10.97321000      0.222360    0.13201900    0.08109600
Se   15.88296000    4.42632000    1.32319000      0.211722   -0.10182400    0.13016600
Se   15.75225000    4.32265000   11.04982000      0.314121    0.36492200   -0.19929500
Se   16.09585000   10.51985000    1.57357000     -0.063841   -0.97651600    0.13751100
Se   15.76305000   10.08695000   10.74451000     -0.582213    0.14464500    0.40318700
Se   16.09457000   15.63418000    1.07290000     -0.070793    0.47602100   -0.17240400
Se   16.12306000   15.93257000   11.14173000      0.061293    0.04623800    0.09594100
Se   15.87186000   21.63844000    1.20844000     -0.354575    0.29195900   -0.43215700
Se   16.25362000   21.57915000   11.15365000     -0.058532   -0.45603100    0.41630600
Se   21.55972000    4.10394000    1.05439000      0.618552    0.23768800    0.30656300
Se   21.76779000    4.16403000   10.94858000      0.546448    0.78940700   -0.53062600
Se   21.67826000   10.38793000    1.32810000     -0.107735    0.38313700   -0.35703000
Se   21.63582000   10.13948000   10.87054000     -0.952575   -0.52468400    0.46332000
Se   21.93493000   15.64256000    1.21607000     -0.132103    0.93104400   -0.47219700
Se   22.01162000   15.45497000   10.96262000      0.750508    0.73522300   -0.25165700
Se   21.63890000   21.68296000    1.05499000      0.577651   -0.22139900   -0.10178400
Se   21.92076000   21.34528000   10.35671000      0.331896   -0.19337800    1.63151200
Se    1.53191000    4.28643000    8.56167000      0.290171    0.16686400   -0.05610900
Se    1.63192000    4.36631000   18.66003000     -0.659710   -1.25273300    0.37957400
Se    1.44377000   10.27717000    8.41987000     -0.038308   -0.27657600   -0.27851700
Se    1.42542000   10.01645000   18.29746000      0.295414    0.64643000   -0.37201200
Se    1.21737000   16.02438000    8.48362000     -0.521457   -1.41857500    0.38693300
Se    1.58388000   16.05461000   18.35625000      0.619142   -0.98154700   -0.64981200
Se    1.28280000   21.63101000    8.05883000      0.753479    0.61090000   -0.12197000
Se    1.76964000   21.65443000   18.42373000     -0.065400    1.23532700   -0.14162300
Se    6.98409000    4.57406000    8.70182000     -0.083432   -1.35720300    0.03899500
Se    7.35411000    4.33881000   18.18878000     -0.262051    0.45505900    0.72605000
Se    7.12670000   10.01368000    8.60643000      0.473753    0.14990600   -0.39675300
Se    7.17804000   10.23172000   18.17083000      0.131619    0.76810800   -0.25430600
Se    7.31910000   16.27260000    8.85987000      0.070543   -0.25921400   -0.41789400
Se    7.51306000   16.53869000   17.92417000     -0.874629   -0.89123200    0.95905800
Se    7.27614000   22.13965000    8.01189000      0.085214    0.13553900    0.96382300
Se    6.96244000   21.84855000   18.26646000      0.615681   -0.05861300   -0.33328200
Se   12.93579000    4.19439000    8.69993000      0.806116    0.22783000   -0.47869400
Se   13.17243000    4.61001000   18.24980000     -1.119499   -0.45352300    0.84180900
Se   12.86488000    9.79816000    8.54004000      1.072299    0.31872600   -0.80513300
Se   12.85769000   10.21790000   18.13164000      0.149698    0.40645200    0.20049400
Se   13.32230000   16.30810000    8.23025000     -0.646120   -0.04059300    0.81867800
Se   13.26416000   15.84343000   18.53014000     -0.236369   -1.04710400   -0.53225400
Se   12.68374000   21.69297000    8.17998000      0.152008    0.09519000    0.57824100
Se   12.74461000   21.79828000   18.24120000      0.746265   -0.62283300   -0.45221400
Se   18.68827000    4.61242000    8.93588000      0.601383   -0.20504800   -0.65718500
Se   18.38583000    4.45923000   18.15174000      0.190109   -0.07567600    0.26427600
Se   18.45390000   10.42627000    8.40736000      1.278632    0.00606600   -0.53357700
Se   18.99959000    9.83802000   18.22328000     -0.077528    0.94428800   -0.23523900
Se   18.65506000   15.94141000    8.49484000     -0.239192    0.05885200    0.63775000
Se   18.67510000   15.47509000   17.76459000     -0.066317    1.17701900    0.33569600
Se   18.70938000   21.77252000    8.35102000      0.402366   -0.57656000   -0.13668600
Se   18.38092000   21.73406000   17.98381000      1.375920    0.33760200   -0.24347600
Se    4.26177000    1.67878000    8.26112000     -0.720754   -0.23316400   -0.49696100
Se    4.49557000    1.76013000   18.39991000     -0.921701   -0.21684600   -0.57457100
Se    4.03736000    7.37248000    8.68321000      0.035169    2.28646500    0.24381200
Se    4.45945000    7.02273000   18.31257000      0.297740    1.71765000    0.00369700
Se    4.65455000   12.92644000    8.18857000     -0.869201    0.73097300   -0.17602300
Se    4.10165000   13.18359000   18.55181000      0.596454   -0.21550400   -0.40860400
Se    3.91526000   19.05352000    8.58810000      0.544682   -0.62645400   -0.14046100
Se    4.40594000   19.15152000   18.07820000     -0.367006   -0.51065500    0.07861200
Se   10.63702000    1.99219000    8.51103000     -0.675687   -1.32415700    0.18143400
Se   10.06849000    1.27623000   18.51868000     -0.729948    0.76005000   -0.46599700
Se   10.05743000    7.23619000    8.12276000     -0.076675   -0.86742400    0.83588200
Se   10.13911000    7.55224000   18.35678000     -0.358068   -0.69190800   -0.06294400
Se   10.07636000   12.85639000    8.84939000     -0.230611   -0.02383800   -0.58763400
Se   10.07091000   13.13330000   18.66118000     -0.459793   -0.14510900   -0.74828300
Se   10.32372000   19.14749000    8.88010000     -0.501097   -0.41686300   -0.46730100
Se   10.71544000   18.89403000   18.01801000      0.058203    0.88157300    0.28228000
Se   15.35337000    1.03081000    8.80401000     -0.574899    1.42166400   -0.21748100
Se   15.70403000    1.47377000   18.35788000      0.151646   -0.33467000    0.13330000
Se   15.61519000    7.47034000    8.68522000      1.041116   -1.13128900    0.51484600
Se   15.58979000    7.54764000   18.81442000     -0.222508   -0.52488700   -1.19630000
Se   15.69121000   13.15899000    8.43729000      0.073410   -0.38227000    0.22222300
Se   15.79432000   12.95183000   18.88915000      0.648605    0.14026000   -0.49930100
Se   16.36062000   19.18124000    8.62987000     -0.186189    0.06690700   -0.03387800
Se   15.50682000   18.56678000   18.26340000      1.203305    1.02966200    0.20554200
Se   21.78957000    1.40296000    8.62253000      0.694739   -0.82941600    0.47085400
Se   21.68246000    1.36836000   18.28087000      0.504624    0.05362400    0.45004800
Se   21.97796000    7.13967000    8.33414000      0.659097    0.64235400    0.93330800
Se   21.93982000    7.07753000   18.17588000     -0.565483   -0.11267400    0.09871600
Se   21.78251000   13.16119000    8.63266000     -0.293998   -0.09404500   -0.18450500
Se   21.79568000   12.99580000   18.41578000      0.366333    0.67156800    0.08710800
Se   21.60321000   18.79720000    8.83026000      0.107653    0.43598400   -0.09393200
Se   21.65045000   18.82840000   18.44725000     -0.073522   -1.64010900   -0.43826500
Se    1.31682000    1.45939000    6.02977000     -0.858787    1.24925900   -0.70853500
Se    1.42243000    1.34164000   15.88933000     -0.252860    0.64464500   -0.50708100
Se    1.42378000    7.04036000    6.06584000     -0.610778    0.04810100   -0.03293600
Se    1.39144000    6.99272000   16.07979000      1.007888    0.89281600   -0.56253600
Se    1.36357000   13.40741000    6.12967000     -0.730214   -0.46448100    0.02613900
Se    1.60959000   13.17072000   15.89669000     -0.306065    0.18470000   -0.06778700
Se    1.29657000   18.81086000    6.02556000     -0.169781   -0.79561100    0.51203700
Se    1.36208000   19.13690000   15.94267000      0.913973    0.40226100   -0.54983100
Se    7.18664000    1.47821000    6.29788000     -0.065180    1.09363400   -0.95529600
Se    7.33079000    1.36703000   15.78862000     -0.350727    1.45874400   -0.59500600
Se    6.94659000    7.38492000    6.29829000     -0.378875    0.78688100   -0.96043000
Se    7.19720000    7.45835000   15.99772000     -0.251268   -0.09164600   -0.26791000
Se    7.19907000   13.36224000    6.20438000      0.040221   -0.72431200    0.73809400
Se    7.51147000   13.57228000   16.02641000     -0.093387   -0.49896000    0.27626000
Se    7.48284000   19.08378000    6.32154000      0.249422    0.31015600   -0.14298000
Se    7.30406000   19.03002000   15.48368000      0.199680   -0.27443800    0.45615000
Se   12.82211000    1.30129000    5.90572000      0.552828    0.25200200    0.04291300
Se   12.88860000    1.39309000   15.69107000     -0.202611   -0.41330000    0.57302600
Se   13.01038000    6.94645000    6.64651000      0.408935    0.64244100   -1.30256800
Se   12.58964000    7.27015000   15.85634000     -0.032564   -0.77586700    0.30434100
Se   12.97855000   12.85695000    6.18783000      0.997395    0.07498000   -0.19137800
Se   13.14821000   12.86893000   15.88220000     -0.037406    0.32437900   -0.45096600
Se   13.25665000   19.11079000    6.15210000     -0.413642   -0.19582800    0.26460700
Se   13.07201000   18.48560000   15.25912000      0.505103    0.56274300    0.53333600
Se   19.17883000    1.27765000    6.31208000     -1.212690    0.89105400   -1.13305900
Se   18.68590000    1.75333000   15.76877000      0.764176   -0.93578600    0.03547300
Se   19.16186000    7.08567000    6.13596000     -1.881767   -0.01669500   -0.02081500
Se   18.85950000    7.18449000   16.03775000     -0.160761   -0.05182200   -0.17996500
Se   18.88246000   13.26971000    5.94238000     -0.157211   -0.28632100    0.05579400
Se   19.57034000   13.12371000   15.76321000     -1.429753   -1.25315200    0.77536600
Se   19.11284000   18.27174000    5.94772000     -1.266843    1.53039500   -1.13954700
Se   19.35985000   18.68594000   15.72707000     -1.117363    0.11391800    0.06611600
Se    4.48826000    4.38583000    6.07971000     -1.118931    0.05002500   -0.24764600
Se    4.38265000    4.33336000   15.81048000      0.077167   -0.54436300   -0.09197800
Se    4.15804000   10.24917000    6.14240000      0.018820   -1.16884400   -1.22181700
Se    4.34995000   10.21799000   15.86839000      0.455106   -0.06857000   -0.05384300
Se    4.28324000   15.79452000    6.25736000      0.629867    0.61963300    0.30223600
Se    4.47391000   16.35575000   15.45815000     -0.597243    0.17483800    0.79066300
Se    4.30060000   21.80562000    5.59650000     -0.872283    0.06431700    0.55657600
Se    4.57785000   22.20148000   15.85288000     -0.078875   -0.94389900   -0.80377200
Se    9.99708000    4.45730000    6.14735000     -0.729790   -0.31998400   -0.39307200
Se   10.06730000    4.39186000   16.29836000      2.458680   -0.99932100   -0.66317300
Se    9.97486000   10.34713000    5.81289000     -0.006237    0.01930700    0.39403900
Se   10.08538000   10.18747000   15.85488000      0.496848    0.45021000    0.05083500
Se   10.27713000   16.22133000    6.24064000      0.790972    0.04963600    0.35568300
Se   10.39843000   16.56610000   15.30753000      0.429523   -0.75910200   -0.02213400
Se   10.40484000   22.38933000    5.63824000     -0.223684   -0.01567800    0.89355400
Se   10.15941000   21.70005000   15.30624000     -0.285680    0.92950500    1.48411600
Se   16.02671000    4.20490000    6.19407000      0.129707   -0.77687100   -0.49667900
Se   15.94081000    4.17167000   15.83846000     -0.400498    1.02239500    0.50673500
Se   16.10744000   10.07251000    5.90567000     -0.928321   -0.38081200    0.23382800
Se   15.74878000    9.66585000   16.24941000      0.751977    1.07301900    0.41646100
Se   15.74675000   16.03111000    6.14061000      1.902075   -0.35710100   -0.51404400
Se   15.84324000   15.84240000   15.53536000      0.730704    0.20502800    0.74359600
Se   15.99463000   21.89079000    6.08050000      1.164827   -0.67809900   -0.64702900
Se   15.85293000   21.73762000   16.06536000      0.573625    0.37591600    0.27252400
Se   22.01260000    3.92356000    6.56746000     -1.039526    0.79229000   -0.60749300
Se   21.50410000    4.14750000   15.89228000      0.641779   -0.15617300   -0.62680000
Se   21.74123000   10.26852000    6.51103000      0.639526   -1.15154800   -1.03060600
Se   22.09964000    9.81028000   15.93572000     -0.330507    0.49993900    0.48707000
Se   21.81072000   15.82671000    6.32186000      1.750805    0.93663800    1.32013600
Se   22.18167000   15.71787000   16.13694000      0.491236   -0.20033700   -1.04355400
Se   21.88665000   21.41158000    6.20123000     -0.710843   -0.00311700   -0.21693400
Se   21.92449000   22.14235000   16.06913000      0.460606   -1.29568400   -0.53979500
Se    4.04298000    1.35721000    3.41255000     -0.212438    0.84437600    0.62030700
Se    4.43200000    1.38126000   13.20745000     -0.197836   -0.17409000    0.32900200
Se    3.95077000    7.31269000    3.15744000      0.044863    0.23986100    0.85397400
Se    4.26396000    7.30704000   13.44865000      0.282405   -0.19171300   -0.04124900
Se    4.37206000   12.95872000    3.59921000      0.917898   -0.29279900   -0.85342800
Se    4.74819000   13.06948000   13.58717000     -0.507954    0.12461600    0.10192700
Se    4.78916000   18.93621000    3.99497000     -0.141547    0.49109400   -0.39318000
Se    4.21519000   18.96428000   13.05139000     -0.431550   -0.59073200    1.26240100
Se   10.02711000    1.49823000    3.70517000      0.438569   -0.16014300   -0.59169000
Se   10.07689000    1.55979000   13.38859000      0.101616    0.99991800    0.40333700
Se   10.11422000    7.06806000    3.76369000     -0.413428    0.01888600    0.21824900
Se    9.83477000    7.20834000   13.36531000      0.080001    0.73110500    0.23427800
Se    9.87701000   13.27038000    3.80560000      0.168843    0.80726700    0.29689700
Se   10.30776000   13.00659000   13.48982000      0.177604    0.14550500   -0.03752800
Se   10.01076000   18.94015000    3.71597000      0.722788    0.15257100   -0.20567700
Se   10.25916000   19.04779000   13.00161000     -1.314838   -0.45390600    0.52319000
Se   15.73825000    1.47665000    3.84078000      0.460387    0.23744900   -0.58034600
Se   16.05730000    1.26977000   13.61989000     -0.710323    0.26505600    0.11740200
Se   15.88485000    7.11903000    3.83899000      0.157816   -0.57763300   -0.47283100
Se   15.57031000    7.58443000   13.34435000     -0.073927   -0.76820200    0.32674300
Se   16.24271000   13.07836000    3.91646000     -0.123122    0.23919500   -0.11474400
Se   15.94742000   13.05585000   13.18630000      0.279421   -0.28565000    0.10083200
Se   16.25138000   18.95951000    3.86453000     -0.396224   -0.98393100   -0.00941700
Se   16.50467000   18.81594000   14.02154000      0.871597   -0.30595800   -1.28527200
Se   21.72867000    1.09778000    3.84701000      1.168694   -0.01332500   -1.23246800
Se   21.98007000    1.38678000   13.44834000     -0.374979    0.36415100   -0.23247100
Se   21.40636000    7.16158000    3.57676000      0.695566   -0.05130800   -0.09939800
Se   21.53846000    7.21379000   13.30622000      0.337045    0.38767600    0.15819500
Se   22.05327000   13.20114000    3.87235000      0.462069   -0.24773700   -0.55986400
Se   22.23872000   12.70418000   13.33144000     -0.191243   -0.38449400    0.09197900
Se   21.84017000   18.72347000    3.63773000     -0.392806   -0.09646800   -0.02202700
Se   22.18313000   18.63327000   13.31079000      0.067713    1.12446200    0.16143000
Se    1.18384000    4.39622000    3.61911000     -0.397090   -0.02569900   -0.24357400
Se    1.52098000    4.16048000   13.50360000     -0.063452    0.23028000   -0.38036300
Se    1.09337000   10.12840000    3.69003000      0.494275    0.16642900    0.68329000
Se    1.53337000   10.16831000   13.45015000     -1.112725    0.11219700   -0.71787200
Se    1.90791000   16.03751000    3.50889000      0.267856   -0.05341600    0.21524800
Se    1.59184000   15.78475000   13.19465000      0.663759   -0.45047000    0.74599500
Se    1.36895000   21.74445000    3.17718000      0.364013   -1.11509200    0.89043300
Se    1.61931000   21.80118000   13.26611000      0.167655    1.06397200    0.29108400
Se    6.93136000    4.36816000    3.79544000      0.141722   -0.26555600   -0.28779500
Se    7.32666000    4.40549000   13.15666000     -0.146669    0.04295500    0.59957500
Se    7.12504000   10.01778000    3.64469000      0.607303    0.43165100    0.57819500
Se    7.08203000   10.29787000   13.35832000     -0.124207    0.72302100   -0.07402400
Se    7.15413000   16.13492000    3.97011000     -1.173508    0.55948200   -1.04062500
Se    7.75205000   15.91971000   12.99558000     -0.802476    0.19937900   -0.16252200
Se    7.59316000   22.23431000    3.72293000     -0.491449   -1.30828000   -0.18808900
Se    6.99944000   22.09469000   13.09764000      0.047810   -0.49532700    0.19931300
Se   12.96116000    4.52387000    3.74802000     -0.582294   -0.48520300   -0.44627300
Se   12.87398000    4.47272000   13.74496000      0.469502   -0.30462600   -0.15953200
Se   12.85036000   10.02076000    3.94773000      0.478123   -0.17975900    0.25290900
Se   12.72771000   10.27869000   13.66658000      0.119566   -1.24225900   -0.32675500
Se   13.26589000   15.79907000    3.38367000      0.530381    1.03198300    0.84179200
Se   13.06211000   15.84702000   13.05422000      0.865228    0.48764100    0.99698900
Se   13.22758000   21.79836000    3.49799000      0.032197    0.33229700    0.08712700
Se   13.38450000   21.67916000   13.41314000      0.740168    0.64572000    0.60737300
Se   18.95480000    4.07085000    3.74902000     -0.009864    0.28019300    0.03582100
Se   18.83772000    4.27339000   12.87465000      0.072477    0.38333500    0.14296300
Se   18.77590000    9.91667000    3.75830000      1.047491    1.12165800    1.08017500
Se   18.86578000   10.32818000   13.96322000     -0.602158   -0.07155200   -0.58749500
Se   19.27786000   16.06674000    3.48882000     -0.926267   -0.89228300   -0.56998500
Se   19.28339000   15.88179000   13.51306000      0.078703   -0.17860000    0.02198000
Se   18.81676000   21.68199000    3.51478000      0.278876   -0.47611400   -0.00966100
Se   19.26583000   21.52961000   13.98603000      0.111844    0.23745900   -0.74440600
