384
23.23808000 23.23808000 19.51320000
Ge    5.69572000    6.33533000    9.73251000     -0.212996    0.12814700   -0.15578400
Ge    6.06083000    5.74929000   19.51034000     -0.299563   -0.26677400    1.06494700
Ge    5.59704000   11.49200000    9.67942000      0.828737   -1.53029400    1.37592300
Ge    5.95630000   11.71576000    0.09113000      0.968460    0.04802100   -0.33169300
Ge    5.66049000   17.93494000    9.62772000      0.413089   -1.17697100    0.95440900
Ge    5.98508000   17.86789000   19.38305000      1.171847   -0.03967200   -0.21163700
Ge    5.73988000    0.35412000    9.39182000      0.687837   -0.08721700    0.08228500
Ge    5.76471000    0.07004000   19.47163000     -0.263170   -0.32559600    0.80331000
Ge   11.50397000    5.94947000    9.69809000      0.685165   -0.24046200   -1.69185000
Ge   11.66970000    6.08040000   19.44597000     -0.232059    0.00465000    0.45005600
Ge   11.66198000   11.50576000    9.73655000     -0.440264   -1.27765900   -0.33945200
Ge   11.66819000   11.56732000    0.24944000     -0.403994    1.46671900    0.05058400
Ge   11.95065000   17.58530000    9.67268000     -1.106545   -0.34150400    0.75345000
Ge   11.77401000   17.41549000   19.40135000     -0.829081    0.39126200    0.53325200
Ge   11.86510000    0.32628000    9.62208000      0.449655   -1.45849100    0.96265700
Ge   11.65719000    0.04435000    0.19802000     -0.121512   -0.83286900   -0.69653800
Ge   17.28305000    6.14436000   10.02591000     -0.016564   -0.05980800    0.07766800
Ge   17.34244000    5.96340000    0.08520000     -0.419352    1.14078900    0.43467600
Ge   17.00344000   11.78819000    9.79558000      0.472405   -0.84313400   -0.37749000
Ge   17.54057000   11.37813000   19.40875000      0.616605    0.93659500    0.76715900
Ge   17.50110000   17.50604000   10.11634000      0.159478   -0.34539800   -1.89181700
Ge   17.33942000   17.13232000   19.15212000      0.551786    1.33754800   -0.79244500
Ge   17.21442000   23.11534000    9.61998000      0.325960   -1.55358600    0.25301800
Ge   17.24592000    0.02869000    0.09880000     -0.480083   -0.86112700   -0.56508200
Ge    0.06459000    5.69627000    9.82490000     -0.032959    0.31495700    0.08804000
Ge   23.23544000    5.68945000    0.18879000      0.325851   -0.25042900    0.52607500
Ge   23.17324000   11.50767000    9.60175000      0.380473   -0.73403800    0.36395700
Ge    0.13824000   11.54825000    0.07628000     -0.892154    0.64857800    0.50994100
Ge    0.02891000   17.46670000    9.95844000     -0.478964   -0.38446700    0.32744800
Ge    0.03074000   17.35377000    0.08491000     -0.588342   -0.68672500   -0.73268000
Ge    0.26661000   23.10746000    9.58697000     -2.080074   -0.60443600   -0.80962600
Ge   23.17029000   23.12131000   19.29548000     -0.472395    0.02206000    0.72283100
Ge    2.91327000    5.86084000    7.26483000      0.498433    0.13357300    0.35498100
Ge    3.00879000    5.67396000   17.18416000     -0.017937   -0.33104400    0.88862300
Ge    2.90551000   11.75128000    7.30275000     -1.821816    0.10570500   -1.41989400
Ge    2.86501000   11.60838000   17.31060000      0.467479    0.72952400   -1.01274000
Ge    2.69883000   17.32322000    7.31955000     -0.437881   -0.45878000   -0.02031000
Ge    2.95770000   17.45426000   16.87600000     -0.147555    1.68447900   -0.08609600
Ge    2.88198000    0.00476000    6.86612000     -0.562170    0.29315900    0.88412500
Ge    3.03459000    0.15950000   17.19295000     -0.071229    0.08060600   -0.03310500
Ge    8.36925000    5.58270000    7.07378000      0.392365    1.70350200    1.15039000
Ge    8.64310000    5.96188000   17.18771000      1.458159    0.17651500   -0.13227300
Ge    8.54722000   11.54361000    7.35376000     -0.720926   -0.02694400    1.04309500
Ge    8.83271000   11.75966000   17.19835000      0.660967   -0.58591000   -0.77364300
Ge    8.81849000   17.49867000    7.55763000     -0.382456    1.26852200    0.59143400
Ge    9.10665000   17.83732000   16.72790000      0.104262   -0.68988800    0.17980000
Ge    9.01022000    0.52490000    7.43195000      0.742286   -0.37596500   -0.61328100
Ge    8.75003000   23.19393000   16.96450000      0.193762   -0.36590500   -0.76744300
Ge   14.83243000    5.58882000    7.65546000     -1.017947   -0.26102200   -0.25588800
Ge   14.40659000    6.09380000   16.89834000      0.752957   -0.85021500    0.94422300
Ge   14.54407000   11.28570000    7.38422000     -0.412214    0.25979400   -0.79235400
Ge   14.66196000   11.56740000   17.35471000     -0.045383   -0.03017600   -0.74153300
Ge   14.84159000   17.78375000    7.24134000      0.059693    0.12781000    0.66814000
Ge   14.24068000   17.18850000   16.72013000      0.961500    0.17330100    1.74864400
Ge   14.31875000   23.07209000    7.10393000     -0.992110    0.06398800   -0.53692500
Ge   14.26518000    0.03028000   17.17619000      0.433997    0.29746500   -0.96099000
Ge   20.47949000    5.68615000    7.47717000     -0.562092   -0.76342500    0.46407100
Ge   20.32734000    5.65340000   17.32124000     -1.439687   -0.41102500   -1.56042900
Ge   20.07990000   11.75849000    7.34203000      1.037328    0.12448900   -0.02528300
Ge   20.69625000   11.20812000   17.14148000     -0.361389    1.77928000    0.24904100
Ge   20.36157000   17.34810000    7.54638000      0.600874   -0.64518700   -0.32396300
Ge   20.42649000   16.91736000   17.08855000     -0.337908    1.58245100    0.11938700
Ge   20.50989000   23.00061000    7.39545000     -0.313316    2.16289100    0.08843400
Ge   20.04909000    0.10086000   16.91647000      0.946315   -0.70047100    0.70312300
Ge    2.71187000    2.98898000    4.73383000      0.064715   -0.19988100    0.22949600
Ge    3.08717000    2.76647000   14.58645000     -0.539500   -0.19837500    0.69575600
Ge    2.59037000    8.68016000    4.76390000      2.229389   -0.75917600    0.78341300
Ge    2.85593000    8.62091000   14.81577000     -0.160126    0.58918100   -0.05763100
Ge    2.88487000   14.37348000    4.85555000      0.827649    0.14097800    0.78702200
Ge    3.19258000   14.55527000   14.51075000     -1.238474   -0.46073400    0.70755100
Ge    2.73280000   20.17089000    4.69428000      0.666214    0.43302600   -0.30760800
Ge    3.10872000   20.58977000   14.67778000     -0.740643   -0.43582800   -0.27452200
Ge    8.51406000    2.90910000    4.79750000      0.914679   -1.13905000    0.10818900
Ge    8.61245000    3.16708000   14.79737000      2.171501    0.72744400   -1.07955300
Ge    8.61237000    8.52304000    4.86220000      0.307486    1.00067000    0.15617300
Ge    8.56458000    8.84857000   14.62113000      1.538802    0.22953200    0.40887900
Ge    8.64561000   14.88534000    5.16796000      0.876639   -1.26305900    0.17176200
Ge    8.96393000   14.72105000   14.59847000      1.456903    0.49776500   -0.35508700
Ge    8.94999000   20.57853000    5.09661000      0.283427    0.66044600    0.34743900
Ge    8.55126000   20.57200000   13.97701000     -0.014768    0.16283200    0.85891300
Ge   14.26687000    3.04530000    4.90462000      0.447748   -1.15629200    1.14666300
Ge   14.33022000    2.76886000   14.52845000     -0.033093    0.99262800    0.46002900
Ge   14.32034000    8.57023000    5.12633000      0.592219   -0.87626400   -0.14617000
Ge   14.11030000    8.83791000   14.79982000      2.307680   -1.74223900    1.31724400
Ge   14.39699000   14.38373000    4.91034000     -0.388505   -0.25937800    0.04403900
Ge   14.23653000   14.34659000   14.44760000      0.939072    0.54312800    0.69134400
Ge   14.81087000   20.40889000    4.74315000     -0.729955   -1.14443400   -0.29543100
Ge   14.63642000   20.13774000   14.75429000      1.495244   -1.71449800   -0.47067300
Ge   20.50293000    2.72459000    5.07173000     -0.666883    0.04192000   -0.34752500
Ge   20.21942000    2.88983000   14.34663000     -0.199461   -0.04214400   -0.88851800
Ge   20.44268000    8.61597000    5.01554000     -0.199527    0.83110000    0.49372200
Ge   20.36083000    8.63888000   14.88714000     -0.613814   -0.66215800   -0.63346300
Ge   20.49075000   14.71693000    4.90753000     -0.407695    0.75097400   -0.28051000
Ge   21.00283000   14.41553000   14.57513000     -0.180205    0.94668400   -0.83469200
Ge   20.21817000   20.17632000    4.70775000      0.653214    1.07366000    0.62398400
Ge   21.03715000   20.20543000   14.78626000     -1.328599    0.36883400    0.66604900
Ge    5.39755000    2.94558000    2.49558000      0.764262   -1.39708900   -0.89234000
Ge    5.54012000    3.14200000   12.08148000      1.810227   -0.73625200   -0.33163200
Ge    5.65922000    8.76208000    2.37677000      0.237180   -1.33131600    1.30720800
Ge    5.74301000    8.73989000   12.19732000     -0.682982    0.71742100    0.59473100
Ge    5.78192000   14.60857000    2.37536000      0.207341    1.49260600    0.51044200
Ge    5.82745000   14.64951000   12.16007000     -0.169115    0.86452000   -0.34311200
Ge    6.33283000   20.49962000    2.58342000     -0.109690   -0.95979600    0.20253100
Ge    5.34003000   20.67864000   12.05178000     -0.749613   -0.24216700   -0.88998700
Ge   11.73489000    2.88414000    2.48375000     -2.213561    0.85337200    0.38160300
Ge   11.43341000    2.96512000   12.19315000      0.579831   -0.09873500    1.36399600
Ge   11.44220000    8.76769000    2.50435000     -0.550383    0.43459700    1.21242000
Ge   11.83994000    8.43826000   12.17152000      0.264303   -0.78395000    0.64706000
Ge   11.43918000   14.68619000    2.45661000     -0.116831   -0.28908700    1.15514800
Ge   11.67305000   14.28854000   11.89524000     -0.486869    0.17636400    0.06138900
Ge   11.86217000   20.27016000    2.46959000     -0.572363    0.00692300   -0.02079900
Ge   12.01519000   20.39644000   12.04866000     -0.182017   -0.05700800   -0.38108700
Ge   17.15397000    2.85121000    2.52200000      1.339418   -0.11313300    0.65987600
Ge   17.17870000    2.80890000   12.16269000     -0.141069   -0.37248100   -0.83839000
Ge   17.31063000    8.48556000    2.59337000     -0.177684    1.31259500   -0.15224300
Ge   17.28807000    8.95087000   12.47352000     -0.640005    1.14370400    0.65257300
Ge   17.58898000   14.39274000    2.29307000      0.750876    1.03043400    0.11675400
Ge   17.56305000   14.29919000   12.41128000     -0.132120    1.44617300    0.32758500
Ge   17.48937000   20.22445000    2.15825000     -0.771236    0.12783500    0.28792500
Ge   17.89527000   20.38315000   12.48674000     -0.438773   -1.34162500   -0.24555000
Ge   23.13261000    2.58877000    2.44237000     -0.792723    0.73532700    0.17893900
Ge    0.12345000    2.72666000   12.10178000      0.232005    1.60449900   -0.00221900
Ge   22.75392000    8.72982000    2.58794000      1.043954    0.23607000   -0.82609400
Ge   23.06779000    8.74361000   12.21872000      0.014558    1.04178600   -0.01691600
Ge    0.32111000   14.59506000    2.55065000     -0.532156   -0.01771400    0.18647800
Ge    0.38765000   14.05616000   11.93146000     -0.829299    1.47554900    0.96892500
Ge   23.18552000   20.12215000    2.18906000     -0.552554    0.37149200    0.52687900
Ge    0.15482000   20.42549000   12.03474000     -0.124167   -0.68256700    0.19545500
Se    1.35955000    1.33066000    1.16973000      0.244354   -0.52649700   -0.55964500
Se    1.49974000    1.22015000   10.90487000      1.692869    0.80374100    0.69554200
Se    1.08441000    7.49844000    1.32328000      0.532724   -0.45713200   -0.45399700
Se    1.33009000    7.23834000   11.18140000      0.288300   -0.12516600   -0.24000900
Se    1.53555000   13.12394000    1.20527000      1.103723   -0.60747100   -0.05537900
Se    1.71662000   12.73642000   10.68642000      0.628271   -0.78048700   -0.53828800
Se    1.54460000   18.75428000    1.12003000      0.506609    0.32631300    0.35650600
Se    1.61083000   18.73114000   11.23510000     -0.002912   -0.38904700   -0.49187100
Se    7.11729000    1.38183000    1.34353000     -0.256737    0.93144000    0.51577200
Se    7.13992000    1.54854000   10.88829000     -0.375714    0.75863700    0.04081200
Se    7.26451000    7.35181000    1.32843000      0.560990   -0.56117800   -0.30581300
Se    7.24707000    7.51955000   10.91984000      1.031382    0.02631000    0.34856000
Se    7.31612000   13.10737000    1.65101000      0.810549   -1.30195400   -1.18833600
Se    6.96698000   13.06777000   10.83516000      0.903077   -0.18473400   -0.22941100
Se    7.84372000   19.03188000    1.14704000     -1.598536    0.05242000    0.31994300
Se    6.93029000   19.58506000   10.80215000      0.920815   -0.97668900   -0.87723000
Se   13.11755000    1.59565000    1.32966000      1.624659   -1.40734700   -1.21217600
Se   13.07431000    1.54491000   11.33854000      0.695865   -0.26159300   -0.53753500
Se   13.01115000    7.57329000    1.33800000      0.574834   -0.56634300   -0.68013900
Se   13.28416000    6.72449000   11.03977000     -0.352490    1.35276200    0.62861700
Se   12.98689000   13.25338000    1.53608000      0.399446   -1.27635700   -0.90871200
Se   13.24450000   12.95329000   10.53146000      0.009969    0.77261200    0.97400500
Se   13.23017000   18.76583000    1.22520000      0.307842    0.19259800    0.36660200
Se   13.45121000   18.62246000   11.22219000     -0.335889    0.51053700   -0.18346200
Se   18.72518000    1.17484000    1.57736000     -0.397999    0.52677100   -0.18427900
Se   18.58581000    1.33546000   10.73769000      0.304739    0.91022500    0.70995200
Se   18.84800000    7.61089000    1.06451000     -0.113543   -1.12111700   -0.14421500
Se   18.68344000    7.48895000   11.42474000      1.054431   -0.77720300   -0.63007100
Se   19.07993000   13.03676000    1.01840000     -0.264130   -0.60796200    0.03853400
Se   18.74804000   12.87169000   11.04528000      0.470949   -0.74811000   -0.51279300
Se   18.73177000   18.73790000    0.78211000      0.671451    0.05800700    0.03476300
Se   19.12059000   18.68814000   11.21067000      0.813331    0.78037800    0.72162700
Se    4.29053000    4.63601000    1.29475000      0.250445   -0.19095300   -0.08373700
Se    4.37683000    4.81525000   10.94285000     -1.230310   -0.42775000    0.34707600
Se    4.57638000    9.97698000    0.81352000     -1.662640    0.56468900   -0.26967900
Se    4.16787000   10.18368000   11.12649000     -0.046731    0.02035000   -0.21760400
Se    4.62007000   16.24589000    1.12744000     -0.306000    0.35030300   -0.42207800
Se    4.29961000   16.26109000   10.99680000      0.712020    0.02953000    0.07731800
Se    4.60155000   21.46044000    1.27383000      0.008656    0.70969200   -0.46755100
Se    4.23506000   22.16275000   10.48303000     -1.053401   -0.44842200    0.28625700
Se   10.42203000    4.45935000    1.24338000     -0.685883    0.22396100   -0.16123800
Se   10.24899000    4.55488000   11.03450000     -2.243430    0.11250300   -0.15490200
Se    9.99375000   10.36143000    1.41305000      0.200325   -0.35154100    0.24837800
Se   10.41283000    9.66480000   10.85013000     -0.527537    1.08767500   -0.50061900
Se   10.18665000   16.18129000    1.23863000     -0.721666    0.62728700   -0.56495300
Se   10.32131000   15.95132000   10.72022000      0.676192    0.09661800   -0.12049100
Se   10.32618000   21.59989000    1.19420000     -0.129109    0.17531100    0.41622300
Se   10.54649000   21.95418000   10.92498000     -0.057461    0.10349100   -0.15270900
Se   15.92242000    4.43566000    1.28333000     -0.386519    0.09975400    0.04051800
Se   15.77270000    4.45963000   10.96184000      0.132735   -0.34009400    0.24451100
Se   16.11749000   10.46338000    1.54346000     -0.010905   -1.01915900    0.22481600
Se   15.66466000    9.95222000   10.83350000      0.909955    0.64799500    0.25224200
Se   16.12721000   15.74343000    0.89591000     -1.337240   -1.20427500    1.77185400
Se   16.19871000   15.89172000   11.13733000     -0.799256   -0.46730600    0.36535600
Se   15.73719000   21.60190000    1.16049000      0.960893    0.16340900   -0.20145700
Se   16.23350000   21.41657000   11.23503000     -0.273858    0.82692800   -0.73007100
Se   21.69770000    4.13991000    1.11668000     -0.023498   -0.21496100    0.33337900
Se   21.81369000    4.22656000   11.00533000      0.257442    0.00862900   -0.13244400
Se   21.68250000   10.38485000    1.35401000     -0.439307    0.50271200   -0.26756600
Se   21.57786000   10.26021000   10.87648000      0.994693   -0.59088400    0.35545100
Se   21.94853000   15.60930000    1.18489000      0.108228    1.12948100   -0.42947000
Se   21.99655000   15.50171000   10.92151000      0.126007    0.66835500    0.01467700
Se   21.66504000   21.66225000    1.12418000      0.563442    0.17155800   -0.59581600
Se   21.94326000   21.41249000   10.43870000      0.344345    0.58640500    0.75050900
Se    1.51042000    4.42143000    8.43556000     -0.233539   -1.11374200    0.65605000
Se    1.69439000    4.39111000   18.70500000     -0.121050   -0.78192400   -0.31537500
Se    1.57440000   10.21508000    8.39106000     -0.773409   -0.84272800    0.39560900
Se    1.48198000   10.03550000   18.37209000     -0.107184   -0.38906800    0.15715700
Se    1.10867000   15.91842000    8.57986000      0.808143    0.27802100   -0.61114200
Se    1.62074000   16.08102000   18.22783000     -0.099930   -0.62683800    0.12063800
Se    1.16660000   21.68924000    7.96184000      1.360764    0.33415700   -0.04342900
Se    1.82314000   21.79297000   18.53022000     -0.159008    0.15498200   -0.24735200
Se    6.89485000    4.68595000    8.70554000      0.690945   -1.49631500   -0.75995300
Se    7.31229000    4.30671000   18.13951000     -0.111028   -0.40454500    0.66262300
Se    7.04111000    9.85936000    8.64296000      0.745108    1.29610800   -0.50928800
Se    7.38055000   10.19697000   18.19619000     -0.657594    0.82136600    0.44146900
Se    7.12169000   16.25436000    8.76336000      0.293385    0.05199100   -0.34745000
Se    7.55090000   16.43865000   18.01375000     -0.148183    0.21820700    0.10189200
Se    7.25921000   22.26903000    8.03483000     -0.020335   -0.93500200    0.96049500
Se    7.07896000   21.88637000   18.16535000      0.637423   -0.51395800   -0.49190200
Se   13.01683000    4.12891000    8.66143000      0.188680    1.29804800   -0.11024700
Se   12.99180000    4.59308000   18.19867000      0.336554   -0.14682100   -0.15052600
Se   12.87257000    9.88728000    8.42876000      0.294591    0.26252500   -0.02074600
Se   12.89778000   10.26576000   18.25641000     -0.075065   -0.78544400   -0.02920400
Se   13.29009000   16.29591000    8.29820000      0.211165   -0.52559400   -0.04226500
Se   13.25057000   15.93050000   18.47002000     -0.302884   -1.60725400   -0.61207300
Se   12.87052000   21.72130000    8.34127000     -0.639090   -0.07062600    0.52300900
Se   12.86400000   21.78337000   18.18771000     -0.766542   -0.10260400    1.07887800
Se   18.72526000    4.58190000    8.98379000      0.733534    0.07816700   -0.80572400
Se   18.35942000    4.48936000   18.19188000      0.927710   -0.93144000   -0.52863100
Se   18.48073000   10.35342000    8.28762000     -0.485893    0.03818500    0.82675900
Se   18.96309000    9.87447000   18.11265000     -0.538271    0.23276800    0.05032400
Se   18.74049000   15.95205000    8.47103000     -0.525575    0.19797500    0.78341800
Se   18.58976000   15.53010000   17.93613000      0.756362    0.39176900   -0.35133500
Se   18.85433000   21.77266000    8.32621000     -1.471075   -1.13491200    1.08729800
Se   18.42878000   21.81667000   17.95945000      0.433475    0.77928700    0.37156200
Se    4.22255000    1.67213000    8.15999000     -0.408823   -0.34891400   -0.23327400
Se    4.44491000    1.71546000   18.41761000     -0.407736   -0.28943100   -0.23704400
Se    3.91887000    7.46541000    8.77429000     -0.214716    0.58711400   -0.47736200
Se    4.50199000    7.03056000   18.38881000     -0.439350    1.54352100   -0.53999500
Se    4.65881000   12.86566000    8.18127000     -0.038032    2.42185000   -0.28890900
Se    4.29067000   13.09550000   18.60503000     -0.002471    0.09686300   -0.41495200
Se    3.88666000   18.96750000    8.57163000     -0.235627    0.73502400   -0.49134700
Se    4.40258000   19.18251000   18.01711000     -0.072541   -0.82332200    0.20074300
Se   10.61381000    1.98636000    8.63615000     -1.213731    0.12254200   -0.45962100
Se   10.05010000    1.27947000   18.45768000     -0.021166    0.76457300   -0.03218600
Se   10.04253000    7.27109000    8.07325000     -0.090282   -1.02192500    0.78399000
Se   10.14310000    7.55966000   18.27308000     -0.239752   -0.63254400    0.28113500
Se   10.02121000   12.90774000    8.83593000     -0.740902   -0.01308800   -0.73090900
Se   10.07080000   13.10243000   18.63789000      0.675394    0.18755800    0.33926300
Se   10.26778000   19.07771000    8.80385000     -0.279426   -0.29685100   -0.18151900
Se   10.69907000   19.06153000   18.08108000     -0.340213    0.25123100   -0.10628800
Se   15.35834000    1.02683000    8.77580000      0.504062    1.46900100    0.44315500
Se   15.59939000    1.47182000   18.51865000      0.572059    0.20053100    0.05174100
Se   15.81788000    7.50653000    8.70326000      0.344426   -0.61012800    0.21086700
Se   15.65072000    7.51969000   18.86060000     -0.195392   -0.85988300   -1.12344300
Se   15.70927000   13.15916000    8.29991000      0.250380   -0.15407900    0.52443900
Se   15.76459000   13.01167000   18.86946000      0.428470   -0.20277100   -0.65711400
Se   16.38539000   19.11583000    8.62792000     -0.461765   -0.62464700   -0.03169400
Se   15.48202000   18.48690000   18.44673000      0.471371    0.49198100   -0.89939300
Se   21.85695000    1.31454000    8.57197000      0.170860   -0.05137000    0.45325600
Se   21.56445000    1.45068000   18.32191000      0.186846   -0.50076600   -0.08032400
Se   22.11438000    7.11749000    8.34265000     -0.360046    0.68265800    0.51489900
Se   21.96664000    6.98330000   18.24545000     -0.252447    0.91949500   -0.00385100
Se   21.74507000   13.07544000    8.71884000     -0.850284    0.49420900   -0.92972100
Se   21.81376000   12.97621000   18.40750000      0.216569   -1.03603400   -0.14055600
Se   21.53490000   18.79759000    8.97015000      0.487499    0.30735300   -0.15069800
Se   21.68354000   18.75082000   18.52287000     -0.467235   -1.05764800   -0.59324500
Se    1.23657000    1.57302000    6.02314000      0.448850   -0.06122800   -0.17103600
Se    1.49514000    1.32684000   15.80174000      0.373506    0.30931800   -0.02148200
Se    1.40362000    7.11246000    6.07672000     -1.009823    0.47540900   -0.52235000
Se    1.50056000    6.98850000   16.07717000     -0.660602    1.18975100   -0.83761900
Se    1.20342000   13.35746000    6.17558000      1.004809   -1.04179000    0.29047000
Se    1.57873000   13.18070000   15.93601000      0.748083    0.14523600   -0.03519700
Se    1.24112000   18.81933000    5.96557000      0.187006   -0.32161200    0.24721200
Se    1.38969000   19.22800000   15.78107000      1.400135   -0.54147900    0.30841000
Se    7.24473000    1.49032000    6.21863000      0.214549    0.73766300   -0.41402900
Se    7.40626000    1.50839000   15.58005000     -2.043923   -2.23495300    1.64817700
Se    7.07759000    7.39569000    6.19132000     -0.475140   -0.49191200   -0.01766500
Se    7.25272000    7.46303000   16.01898000     -0.750982   -0.21155000   -0.14403300
Se    7.20960000   13.22970000    6.24114000      0.223809    0.30498700    0.14187000
Se    7.62154000   13.48210000   15.97050000     -1.124606   -0.66491600    0.80479800
Se    7.44732000   19.13473000    6.33042000      0.246037   -0.15331800    0.09730200
Se    7.46574000   19.02191000   15.52756000     -0.439427    0.34214800   -0.32907800
Se   12.73709000    1.22274000    5.85483000      1.252911    0.66059300   -0.04325000
Se   12.85259000    1.41362000   15.80246000     -0.098823   -0.15993200    0.19564300
Se   13.16153000    7.09498000    6.69781000      0.050380    0.07808000   -1.07144100
Se   12.63042000    7.25520000   15.82719000      0.497259    0.07577200   -0.08615300
Se   12.95114000   12.72169000    6.15435000      0.723651    0.69175900   -0.46700200
Se   13.12943000   12.84253000   15.87617000     -0.311407   -0.34168100    0.26786700
Se   13.27172000   19.22747000    6.19846000      0.058977    0.02049300   -0.42981700
Se   13.06207000   18.51060000   15.31133000     -1.556785    0.51844200   -0.27412900
Se   19.05588000    1.26706000    6.24560000     -0.485597   -0.01669400   -0.22530300
Se   18.74379000    1.65821000   15.71483000     -0.679065   -0.44310500   -0.13265900
Se   19.09346000    7.02187000    6.12249000     -0.732600   -0.03465400    0.16250600
Se   18.81465000    7.22143000   16.03125000      0.846788   -0.56516300    0.25596500
Se   18.89884000   13.22772000    5.89534000     -0.123758   -0.09381300    0.09785800
Se   19.65186000   13.10695000   15.85081000     -1.577946   -1.47284200    0.79258100
Se   19.08807000   18.52414000    5.96034000     -1.040043    0.10377800   -0.09303400
Se   19.37087000   18.61592000   15.60036000      0.413290   -0.29085900    0.83824000
Se    4.31693000    4.38079000    6.13201000      0.141348   -0.52350900   -0.77768600
Se    4.37909000    4.38941000   15.86860000      0.801073   -0.90532400   -0.53914100
Se    4.15929000   10.17287000    6.07744000     -0.231117   -0.56387500   -0.95705700
Se    4.32743000   10.27729000   15.88784000     -0.234243   -0.34192900    0.12734000
Se    4.28463000   15.86054000    6.32286000     -0.087647   -0.16438700   -0.49727300
Se    4.48796000   16.31027000   15.42552000      0.104330    0.18701400    0.44349500
Se    4.29035000   21.77489000    5.69885000     -0.145880   -0.18604600   -0.03719500
Se    4.64253000   22.17989000   15.88604000     -0.539241   -0.68990400   -0.48772800
Se    9.98358000    4.27999000    6.11252000      0.401241   -0.30154900   -0.57565900
Se   10.13330000    4.14642000   16.41545000     -0.324647    0.64161000   -0.73681800
Se    9.92551000   10.41668000    5.85905000      0.420936   -0.85353600   -0.42240500
Se   10.27086000   10.21288000   15.82990000     -1.173533    0.34297600    0.06369100
Se   10.31829000   16.26533000    6.32725000      0.009173   -0.93787400   -0.66248100
Se   10.58467000   16.45991000   15.31796000     -0.865530   -0.44462200    0.33268400
Se   10.46202000   22.48722000    5.73573000     -0.909419   -0.67701400    0.87336900
Se   10.11834000   21.81206000   15.30247000     -0.362861    0.50633300    0.89091000
Se   16.02803000    4.20528000    6.09550000     -0.093912   -0.02254000    0.20971400
Se   15.86769000    4.15711000   15.84574000     -0.684537    0.72632800    0.09580900
Se   16.03543000    9.97781000    5.97250000     -0.106951    0.36151400    0.49432300
Se   15.87892000    9.74775000   16.17989000     -0.543233    0.71015900    0.00677800
Se   15.79826000   15.92586000    6.11679000      1.004961   -0.19570700   -0.27261400
Se   15.75357000   15.96543000   15.53255000      0.661788   -1.18086200   -0.38082300
Se   15.97852000   21.78955000    6.14335000      1.628207    0.52338900    0.07152100
Se   15.67802000   21.56509000   16.18323000      1.211345    0.81763300    0.61759300
Se   21.90893000    3.88666000    6.63727000     -0.331407    0.60225700   -0.52309700
Se   21.49672000    4.05659000   15.85294000      1.096691    1.13811300    0.85163600
Se   21.76353000   10.24055000    6.43102000     -0.521737   -0.47125500   -0.67171000
Se   22.09504000    9.68915000   16.07000000      0.598542    0.10215800   -0.04730000
Se   21.93560000   15.91257000    6.39725000     -0.082825   -0.12422700   -0.17006200
Se   22.21681000   15.79077000   16.08714000      0.807667    0.08681000   -0.27811500
Se   21.84278000   21.55398000    6.35811000      0.432492   -1.86631200   -1.95585300
Se   22.02214000   22.03808000   16.04683000     -0.580613   -0.05711500   -0.01913600
Se    4.02164000    1.27487000    3.48161000     -0.154680    0.95232000    0.45209300
Se    4.54818000    1.40992000   13.27069000     -0.586402   -0.16762100    0.36346800
Se    3.84705000    7.22389000    3.28240000      0.871315    0.87594000    0.19877900
Se    4.13438000    7.31679000   13.29149000      0.417967   -0.49177700    0.15759000
Se    4.53414000   13.11630000    3.58107000     -1.066664   -1.01707500    0.77507100
Se    4.74934000   13.09171000   13.58847000     -0.000705   -0.42984600   -0.11921200
Se    4.74783000   18.88870000    4.10097000      0.123721    0.62776600   -0.73060900
Se    4.14955000   18.94089000   13.12723000      0.062174    0.68893500    0.80493900
Se   10.19707000    1.42666000    3.61320000     -0.459962    0.73249900   -0.13403900
Se   10.00730000    1.56365000   13.50413000      0.024450    0.69024900   -0.22348000
Se   10.05208000    7.10615000    3.71002000      0.549545    0.05913700   -0.30444100
Se    9.90211000    7.30931000   13.36501000      0.503442   -0.31758100   -0.23790700
Se    9.90791000   13.32122000    3.78537000      0.516329    0.51871500   -0.00910200
Se   10.18360000   13.01923000   13.48276000      0.871157   -0.07026400   -0.68546500
Se   10.15579000   19.07710000    3.75454000      0.474237   -0.53036700   -0.22665500
Se   10.19170000   19.17510000   13.00214000     -0.012242   -0.64256100   -0.22429200
Se   15.73361000    1.45709000    3.85856000      0.057303    0.15221400   -0.32414300
Se   16.06619000    1.28508000   13.67682000     -0.259807    0.47502100   -0.44985500
Se   15.88832000    7.05621000    3.76094000     -0.575039   -0.02935900    0.44873500
Se   15.64978000    7.49608000   13.43861000     -0.209582   -0.30066100    0.33414200
Se   16.26329000   13.19961000    3.86035000     -0.401840   -0.60463500    0.27774300
Se   15.74344000   13.01510000   13.23941000      0.584532   -0.86803400   -0.08085400
Se   16.39551000   18.82469000    3.83896000     -0.443593    0.12043400   -0.25262500
Se   16.66254000   18.84204000   13.89166000     -1.327927    0.41714000   -0.07650100
Se   21.71948000    1.08683000    3.72355000      0.039410    0.80413000   -0.16464700
Se   22.02707000    1.42823000   13.42172000     -1.237036   -0.72322900    0.83842200
Se   21.39614000    7.14448000    3.44187000     -0.107598   -1.11976000    0.70774200
Se   21.50589000    7.31322000   13.23094000     -0.035899   -0.43244800    0.58904300
Se   21.97050000   13.27026000    3.77555000      0.363231   -0.54306000   -0.06337300
Se   22.22119000   12.79716000   13.37056000     -0.164391   -0.41631900   -0.01981700
Se   21.67647000   18.72987000    3.50423000      0.387811    0.05157500   -0.36785000
Se   22.06542000   18.82201000   13.28885000      0.494928   -0.07635900   -0.47406400
Se    1.13448000    4.37074000    3.50223000      0.290485   -0.32098000    0.22819900
Se    1.62434000    4.22105000   13.50019000     -0.635666   -0.04025800   -0.99999600
Se    1.15323000   10.03118000    3.70781000     -0.996926    1.69932900   -0.37034400
Se    1.42497000   10.16333000   13.57348000     -0.500121   -0.62901000   -0.16118400
Se    1.94347000   16.04456000    3.56886000     -0.769971    0.51487000   -0.68214700
Se    1.59057000   15.71429000   13.15292000      0.185689    0.03290200    0.18631700
Se    1.38473000   21.67554000    3.25854000      0.504336   -0.30888100    0.69148600
Se    1.56256000   21.89674000   13.20465000      0.347835    0.44474700    0.46081700
Se    6.89019000    4.19049000    3.78811000      0.054843    1.55389400   -0.20973400
Se    7.25177000    4.35650000   13.27189000     -0.145677    1.07390300    0.09169400
Se    7.23395000   10.06641000    3.70972000     -0.549819    0.16624600   -0.34276100
Se    7.11154000   10.24846000   13.44499000     -0.196414    0.46900400   -0.02822400
Se    7.08449000   15.99738000    3.90306000     -0.565143    1.38155400   -0.47529400
Se    7.71888000   15.94630000   13.04847000     -0.895574    0.39742200   -0.35585800
Se    7.52640000   22.09600000    3.92904000     -0.324669   -0.30797700   -0.41870300
Se    6.86703000   22.07363000   13.01594000      1.226160    0.67997600    1.01900000
Se   12.85999000    4.44560000    3.76096000      0.121068    1.25772900    0.11846600
Se   12.81814000    4.47111000   13.58677000      0.459693   -1.27095000   -0.07697100
Se   12.97461000   10.12490000    4.00042000     -0.736753   -0.25589700   -0.74074500
Se   12.73330000   10.11403000   13.70912000     -1.534588    2.05051200   -1.98034900
Se   13.30122000   15.90424000    3.42816000     -0.305155    0.20907100    0.36549800
Se   13.15100000   15.81237000   13.01934000     -0.627348    0.22614000   -0.19152900
Se   13.28071000   21.84487000    3.59745000     -0.221524   -0.25490400   -0.29278700
Se   13.42016000   21.57016000   13.53470000     -0.863118    1.74142800   -0.89319400
Se   18.88152000    4.21640000    3.86369000     -0.061105   -0.55414500   -0.14275900
Se   18.87441000    4.28436000   12.79325000      0.767003   -0.09292700    1.09252600
Se   18.89679000    9.91030000    3.70255000     -0.018008    0.58709200    0.45534600
Se   18.87741000   10.27172000   14.02569000     -0.755715    0.33757100   -0.84946700
Se   19.17167000   16.08063000    3.31245000     -0.432136   -0.77042200    0.13167500
Se   19.16753000   15.82054000   13.51236000      0.106076   -0.78258800    0.18226100
Se   18.81340000   21.78661000    3.44284000      0.484006   -0.57093900    0.19115000
Se   19.17897000   21.57891000   13.95171000      0.925419    1.17160900    0.08150200
