384
23.23808000 23.23808000 19.51320000
Ge    5.68095000    6.45256000    9.57672000      0.651643   -0.68108100    0.81332000
Ge    5.93848000    5.71715000    0.14114000     -1.039379   -0.49672100   -0.70198500
Ge    5.77859000   11.47714000    9.95449000      0.398989    1.12676200   -1.15108900
Ge    6.14412000   11.40002000    0.11904000     -0.004026    1.35626800    0.91609100
Ge    5.47820000   17.71655000    9.74090000      0.517381    0.87272800   -1.37078800
Ge    6.05032000   17.55068000   19.37690000     -0.560061    0.12585600    0.00477700
Ge    5.55238000    0.33149000    9.36892000      0.329974   -1.06437200    0.40300800
Ge    5.93384000   23.08439000   19.35565000     -0.047722   -0.26465100    0.31334900
Ge   11.59909000    5.81884000    9.24670000     -1.930335    1.21119200    2.22598700
Ge   11.76689000    6.16042000   19.46927000     -0.917558   -1.13317900   -0.61265400
Ge   11.50044000   11.50260000    9.48622000      0.381082    0.74997400    0.39838400
Ge   11.56978000   11.71232000    0.33508000      1.410905   -0.52663400    0.51171100
Ge   11.77861000   17.48187000    9.74384000      0.513848    0.12865700   -0.59202700
Ge   11.65521000   17.62769000   19.29474000      0.372174   -0.21635800    0.12430700
Ge   12.15507000    0.38732000    9.72932000     -1.611750   -0.42559100   -0.77573500
Ge   11.55068000    0.01070000   19.47482000     -0.741987   -0.12883600    0.94268000
Ge   17.64958000    5.99152000   10.07775000     -1.754959   -0.46843800   -1.10150300
Ge   17.43652000    5.89571000    0.15186000      0.300595   -0.08209800   -0.46134600
Ge   16.96484000   11.42370000    9.68524000      0.080516    0.98242400    0.47577100
Ge   17.51233000   11.60086000   19.48829000     -1.182788   -1.27384700   -0.34816700
Ge   17.69717000   17.38675000    9.95759000     -0.841341   -0.00188200    0.92791100
Ge   17.39318000   17.41415000   19.29468000      0.099751   -1.21329600    0.18982800
Ge   17.34719000   22.85176000    9.90393000     -0.046778    1.59021400   -0.75251600
Ge   17.09653000    0.00464000    0.13174000      0.774455    0.79645700    0.03139100
Ge    0.09127000    5.71416000    9.81572000     -0.924772   -0.30697900    0.47934200
Ge    0.18857000    5.60978000    0.23215000     -0.826204   -0.30087200   -0.62368600
Ge    0.05545000   11.35737000    9.52497000      0.908107    0.69630200   -0.62520500
Ge    0.13166000   11.58721000    0.42167000     -0.153131   -0.73674400   -0.25305000
Ge    0.03642000   17.49585000   10.08431000     -1.446338   -1.28931100   -0.65226400
Ge    0.32925000   17.18277000   19.46162000     -1.436704    1.24192800    0.57871500
Ge    0.21128000   23.05346000    9.56572000     -0.383074    1.68353900   -0.15445400
Ge   22.95026000   23.23270000   19.25714000     -0.332627   -0.62798000   -0.46861700
Ge    2.67873000    6.09393000    7.20939000      0.077830   -1.30111100   -0.01357700
Ge    3.10986000    5.77231000   17.30879000     -0.752686    0.05827100   -1.10022600
Ge    2.87923000   11.63677000    7.20327000      1.401844   -1.19480800    0.95874200
Ge    2.97441000   11.74152000   17.39168000     -0.463015   -0.67243700    0.69640000
Ge    2.42952000   17.29016000    7.22973000      1.262484    0.86617500   -0.07832900
Ge    3.10244000   17.69852000   16.75044000      1.493853   -0.95324800    0.71225400
Ge    2.68755000    0.13042000    6.90931000      1.286214   -0.73572500   -0.52411200
Ge    3.09482000    0.09081000   17.06057000      0.021853    0.04474700    1.47373100
Ge    8.62875000    5.58093000    7.17915000      0.900563    0.23279700   -0.79157200
Ge    8.79299000    5.72539000   17.22686000     -0.423284    1.41748800    0.23106400
Ge    8.42092000   11.37585000    7.51305000      0.021805    0.46961400   -1.42199500
Ge    9.13784000   11.70241000   17.12758000     -0.573385    0.71056700    0.93795800
Ge    8.59845000   17.47647000    7.52009000      0.622758    0.30179000   -0.05820400
Ge    9.27240000   17.68543000   16.80291000     -0.984068    0.42539900   -0.34606900
Ge    8.89849000    0.48278000    7.45936000      0.258462   -0.72859600    0.56081200
Ge    8.74583000    0.26818000   16.78135000      1.503515   -1.76470100    0.26337400
Ge   14.89038000    5.76994000    7.56210000     -0.497691    0.46755200   -0.07338000
Ge   14.46157000    5.83891000   17.18431000     -0.378923    0.37298700   -0.83078600
Ge   14.51568000   11.51587000    7.13034000     -1.180222   -0.13821000    0.07693400
Ge   14.51100000   11.46171000   17.30169000     -0.422920   -0.55424700    0.21037400
Ge   14.75589000   17.51168000    7.19262000      0.007667    0.05260800    0.01185100
Ge   14.30176000   17.32887000   16.95334000     -1.404771   -1.05855700   -1.22025500
Ge   14.46613000   23.07302000    7.17275000      0.231896    0.25777200    0.55740700
Ge   14.40906000    0.09679000   17.17112000     -0.257182    0.04885100    0.33612800
Ge   20.39947000    5.82765000    7.61120000      0.549224   -1.11341700   -0.54693800
Ge   20.25455000    5.56527000   17.08234000     -0.052827    0.38119500    1.35862100
Ge   20.15157000   11.60669000    7.32465000     -0.836583   -0.49647600   -0.44821000
Ge   20.71360000   11.22145000   17.15426000     -1.037452   -0.45335000   -0.00348400
Ge   20.43591000   17.53313000    7.40935000     -0.399926   -0.01037800    0.17668500
Ge   20.50786000   17.07713000   17.17497000      1.913361   -0.23531400    0.68325100
Ge   20.21672000    0.00004000    7.30076000      0.582745   -0.91031700    0.42030600
Ge   20.34148000    0.04023000   16.89502000     -1.889724    0.29030400   -0.39001200
Ge    2.57448000    3.00488000    4.68437000      1.355300   -1.06248100    0.84763300
Ge    3.10463000    2.93675000   14.64962000     -0.308537    0.51161800   -0.25415900
Ge    2.64162000    8.67564000    4.79354000      1.051399    0.99580200   -0.83702900
Ge    2.96408000    8.73724000   14.75052000     -1.474782   -1.05422000    0.10958600
Ge    2.87630000   14.50848000    5.09962000     -1.197126   -0.38441000   -1.34699800
Ge    3.04390000   14.36975000   14.59506000      0.519400    1.51096900   -1.01307800
Ge    2.99674000   20.12349000    4.73030000      0.058266    0.37245000    0.15001100
Ge    2.90740000   20.91912000   14.52483000     -0.364853   -1.68798400    0.87061000
Ge    8.69840000    2.66996000    4.38174000     -0.965161    1.08132200    1.47806600
Ge    8.62775000    3.23577000   14.74594000     -1.690835   -1.20226400   -0.98245800
Ge    8.72905000    8.76988000    4.77716000     -0.961702   -0.88147900    0.04191700
Ge    8.95519000    8.80753000   14.80571000     -0.509903   -0.91698800   -0.87871500
Ge    8.71530000   14.64818000    5.16024000     -0.580631   -0.59594500   -1.49478500
Ge    9.01416000   14.71213000   14.47991000     -0.590601   -0.33675000   -0.34922900
Ge    9.16180000   20.59939000    5.34724000     -0.955331   -0.41587700   -0.89308100
Ge    8.57485000   20.74244000   14.04644000      0.845736   -0.46185100   -0.29846800
Ge   14.31645000    2.93302000    5.07868000      0.536228    0.84529200   -0.77060200
Ge   14.14735000    2.89056000   14.64176000      0.077086    0.15919000   -0.17026900
Ge   14.54913000    8.57842000    4.86202000     -0.762271    1.31973600    1.60184900
Ge   14.51653000    8.81552000   14.79353000      0.095481    1.10978300   -0.73922000
Ge   14.37177000   14.42598000    4.81371000     -0.034717    0.09875600   -0.00797900
Ge   14.21030000   14.35356000   14.62198000     -0.457210   -0.70222900   -0.73092400
Ge   15.03034000   20.21469000    4.69285000      0.122521    0.54440200    0.17765400
Ge   14.68630000   19.93991000   14.63660000     -2.072051    1.03764600    0.63067900
Ge   20.11929000    2.76890000    5.00441000      0.542831   -0.44696200    0.69040200
Ge   20.27180000    2.87081000   14.44939000      0.034512   -0.54541700    1.28045600
Ge   20.24473000    8.42701000    4.99448000      0.207538    0.63810900   -0.49269000
Ge   20.33365000    8.60368000   14.83881000     -0.320557    0.17777400   -0.14168900
Ge   20.36481000   14.97280000    4.78553000      0.392135   -0.58886400    0.17716200
Ge   20.80413000   14.55675000   14.75338000      0.120459   -0.56404900    0.74676100
Ge   20.35217000   20.45363000    4.68617000     -1.383648   -1.57822900   -0.78500300
Ge   20.48423000   20.42727000   14.82189000      0.994708    0.37225400   -0.26438300
Ge    5.43137000    2.66047000    2.38947000     -0.844444    0.94884300    1.14513000
Ge    5.83327000    3.15832000   12.16827000     -0.566037    1.32765200    0.51365900
Ge    5.76419000    8.48862000    2.62163000     -0.263533    0.77547800   -0.92145600
Ge    5.78334000    8.77175000   12.44395000      0.521770   -0.23434700   -0.54173000
Ge    5.83063000   14.66812000    2.35557000      0.640923   -0.33222000    1.16761700
Ge    5.77031000   14.77193000   12.11058000      1.469858   -0.64045600   -0.03369300
Ge    6.32985000   20.12958000    2.69589000     -0.492108    2.23798700   -0.08798000
Ge    5.17889000   20.62757000   11.79787000      1.574087    0.48312400    0.28879600
Ge   11.54960000    3.20298000    2.28677000      0.556843   -0.33005500    0.49365100
Ge   11.29755000    2.83081000   12.13953000     -1.379508    0.12444500   -0.40441800
Ge   11.55822000    8.85811000    2.64547000     -0.328556   -0.24665500   -1.43947300
Ge   12.06150000    8.33696000   12.14411000     -1.022772    1.39297100   -0.27110000
Ge   11.60503000   14.98397000    2.43784000     -0.679192   -1.34651400   -0.70853400
Ge   11.57884000   14.31358000   11.72142000     -0.280623    0.34202100    0.11174800
Ge   11.82737000   20.59405000    2.44799000     -0.030760   -1.46951300   -0.17708000
Ge   12.01404000   20.57643000   11.89962000     -0.533115   -1.32701900    0.07178800
Ge   17.42698000    2.92781000    2.75524000     -1.336965   -0.33033400   -0.70490100
Ge   17.17266000    2.97196000   12.01950000      0.564532    0.00144800    0.62645300
Ge   17.47963000    8.61682000    2.64315000     -0.278440   -0.43954400   -0.68671900
Ge   17.39759000    8.75900000   12.57786000      0.559094   -0.99596000   -0.46366100
Ge   17.32646000   14.53858000    2.18768000      1.176315   -0.18466600    0.69621500
Ge   17.29851000   14.05450000   12.48046000     -0.025050   -0.20219100   -0.75322600
Ge   17.44193000   20.30605000    2.20658000      1.077284   -0.05808400   -0.00665000
Ge   17.93755000   20.37851000   12.45265000     -1.472210    0.74560800    0.53616000
Ge   23.21195000    2.55257000    2.36315000     -0.412624   -0.34379000    0.24532000
Ge    0.18487000    2.85303000   12.27987000     -0.687588   -1.23277600   -0.28686800
Ge   22.86745000    8.71210000    2.50084000     -0.218851   -0.10135000   -0.12626700
Ge   23.11511000    8.86703000   12.22727000      0.611754   -1.26625200    0.89882600
Ge    0.22954000   14.54610000    2.49832000     -0.514358   -0.50588000   -0.10907700
Ge    0.06602000   14.25807000   12.00695000      0.233598    0.53653400   -0.47562900
Ge   23.21397000   20.16463000    2.37185000      0.189630    0.94141400   -0.34025600
Ge    0.29084000   20.51568000   12.14757000     -1.818519   -0.60605200   -0.41079000
Se    1.26366000    1.10703000    0.94870000      1.045977    1.15713600    1.39564700
Se    1.68347000    1.30164000   11.04657000     -0.734478    0.06316800   -0.49670000
Se    1.29440000    7.55232000    1.10064000     -0.143590    0.10336400    0.39924200
Se    1.31815000    7.23219000   11.17664000      0.413141    0.23750600    0.07719600
Se    1.77037000   12.94552000    1.49492000     -0.543095    0.17493700    0.01659200
Se    1.58593000   12.74016000   10.76127000     -0.403977    0.57254600    0.01535200
Se    1.56875000   18.77733000    1.31677000      0.295610   -0.32576000   -0.37908200
Se    1.63294000   18.92671000   10.95536000      0.645349    0.42066500    0.37843900
Se    6.99070000    1.48010000    1.29329000      1.771967   -0.77994500   -0.78806200
Se    6.95428000    1.57897000   10.90915000      0.853107   -0.46352100   -0.73043800
Se    7.32406000    7.11547000    1.34773000      0.537284    0.56206000    0.58678400
Se    7.46492000    7.59231000   11.05357000     -1.369074   -0.25682700   -0.21305100
Se    7.54415000   12.89225000    1.62308000     -1.367401    0.65183200   -0.33530900
Se    7.32844000   13.13906000   10.93627000     -1.137112    0.11298800    0.15298200
Se    7.51904000   18.57237000    1.52027000      0.845455   -0.34992300   -0.78449700
Se    6.95442000   19.34675000   10.66636000     -0.624822    0.07435900    0.22972700
Se   13.01066000    1.62742000    1.03238000     -0.396566    0.33496400    0.46561900
Se   13.17101000    1.54978000   11.38533000      0.753716    0.70793300    0.13652800
Se   13.08964000    7.53109000    1.22353000      0.562122    0.31999900    0.69164800
Se   13.20796000    6.75823000   10.92186000      0.358022   -0.12814000   -0.66203600
Se   13.15735000   13.18558000    1.46748000     -0.931270    0.42967400    0.14227300
Se   13.09979000   13.02573000   10.54947000     -0.169261   -0.68875500   -0.56446600
Se   13.23750000   19.14501000    0.91001000     -0.542430   -0.16859200    0.81869000
Se   13.31480000   18.51651000   11.26883000     -0.375584    0.83594200   -0.24879300
Se   18.65185000    1.38748000    1.43455000      0.248510   -0.38905600   -0.19957400
Se   18.66925000    1.51119000   10.88769000     -0.165118   -0.81297700   -0.12873600
Se   19.01700000    7.45219000    1.10151000     -0.783237   -0.48324400    0.23744900
Se   19.07502000    7.11152000   11.41134000      0.062531    1.39677000    0.84892900
Se   18.89156000   13.20465000    0.82291000      0.643163    0.58597700    1.03134600
Se   18.58406000   12.58636000   10.97638000      0.094772    0.48266200    0.40082600
Se   18.93969000   18.91497000    0.82144000     -0.403396    0.09010100    0.03975400
Se   19.28583000   18.79974000   11.45544000     -0.066297   -1.00580100   -0.93444400
Se    4.20298000    4.40287000    1.31044000      0.351435    0.23939600   -0.19487100
Se    4.38297000    4.79456000   10.97819000      0.252000   -0.00757700   -0.12679100
Se    4.48914000   10.06645000    1.08770000      0.146944   -0.77187900    0.64630800
Se    4.20708000   10.17718000   11.16236000      0.409439   -0.20343000    0.19483900
Se    4.42354000   16.13125000    0.99951000      0.511638   -0.21594100   -0.12640300
Se    4.27356000   16.31190000   11.11193000     -1.106161   -0.45683300    0.40421500
Se    4.76860000   21.49702000    1.31768000      0.141383    0.03033500   -0.11282700
Se    3.83752000   21.97142000   10.25187000      0.826661   -0.01815200    0.44639900
Se   10.13179000    4.62673000    0.99808000      0.220570    0.06099500    0.21251000
Se    9.88121000    4.75235000   10.90949000      1.462785   -0.71380500   -0.34954700
Se   10.01321000   10.31509000    1.45710000      0.343717   -0.32432700    0.25400200
Se   10.52671000    9.75029000   10.70947000     -0.595610   -0.37843600    0.51179600
Se   10.05510000   16.49298000    1.19672000      0.839223   -0.51768200    0.35324800
Se   10.24226000   15.92240000   10.54018000     -0.610347   -0.47147000    0.33131800
Se   10.09819000   21.73614000    1.39675000      0.267313    0.80242000   -0.58996400
Se   10.63553000   22.13913000   10.79927000     -0.772290   -0.25818000    0.13613500
Se   15.99853000    4.42254000    1.32961000      0.146353   -0.29840100    0.66885900
Se   15.81184000    4.54401000   10.91730000      0.413783    0.16591000   -0.00991100
Se   16.07659000   10.09005000    1.40690000      0.119431    0.50215900   -0.43471900
Se   15.85370000    9.90778000   11.18087000     -0.720908   -0.04052600   -0.20235200
Se   15.82434000   15.75793000    1.01242000     -0.101841    1.31460000   -0.89243200
Se   16.11519000   15.74778000   11.17392000      0.572095    0.50018900   -0.21340300
Se   15.76233000   21.50778000    1.02775000     -0.093683   -0.08280900    0.22448200
Se   16.03962000   21.38353000   11.14283000      0.498688   -0.32093600    0.59501300
Se   21.82745000    4.15026000    1.39296000     -0.339319    0.80231700   -0.76451800
Se   21.83571000    4.24680000   11.16385000      0.319042    0.31466700   -0.57840300
Se   21.44783000   10.41538000    1.44200000      1.061418   -0.30187000    0.12181600
Se   21.88433000   10.33480000   10.99468000     -1.887531   -0.06506200    0.17738600
Se   21.96483000   15.78159000    1.07851000      0.782930   -0.03865700   -0.09290600
Se   21.63875000   15.77482000   10.92632000      1.512911    0.03015600    0.26008500
Se   21.79062000   21.67864000    1.02777000     -0.423779   -0.62254400    0.34639800
Se   21.90092000   21.89193000   10.82100000      0.406879   -0.84122000    0.68479000
Se    1.36931000    4.30923000    8.44866000      0.681156    0.54356900   -0.34223100
Se    1.78714000    4.16150000   18.58693000     -0.399086    0.50002800   -0.17773600
Se    1.59372000    9.72978000    8.45141000     -0.241740    1.84491700   -0.14873500
Se    1.51750000   10.06188000   18.66979000      0.391467    0.59718700   -0.46654900
Se    1.13233000   15.92218000    8.55934000     -0.451126   -0.33078800    0.58517700
Se    1.68224000   16.10389000   17.94161000      0.682787   -0.50272700   -0.31496100
Se    1.31217000   21.79407000    7.84734000     -0.689043   -0.83583400    1.15371800
Se    1.76503000   22.01545000   18.70568000      0.071764   -0.23915900   -1.24850200
Se    6.87936000    4.62669000    8.41021000     -0.570250   -0.05333900    0.37907800
Se    7.26385000    4.17612000   18.24880000     -0.244320    0.77828500    0.58840400
Se    7.10659000    9.83763000    8.56517000     -0.812831   -0.02952500    0.78521000
Se    7.66496000   10.22393000   18.39019000      0.554193   -0.82661200   -0.77375900
Se    6.79519000   16.21250000    8.36964000      0.077072   -0.42302800    0.35155700
Se    7.65986000   16.28572000   18.17063000      0.271392   -0.09069900   -0.51444000
Se    7.34423000   22.13046000    8.44960000     -0.341198    0.31475700    0.43110400
Se    7.47235000   21.79092000   17.87098000     -0.574622    0.06331300    0.76990400
Se   13.13470000    4.34936000    8.55957000      1.157183   -1.44035200   -0.80275200
Se   12.79289000    4.47843000   17.98165000     -0.676232   -0.02928100    1.30265300
Se   12.86040000   10.06265000    8.23431000      0.708589    0.22501700   -0.41181700
Se   12.91561000   10.08096000   18.66412000      0.444670    0.54221900   -0.41063600
Se   13.31908000   16.09042000    8.42759000     -0.466240    0.04041900    0.15508800
Se   12.87627000   15.70624000   18.15616000      0.004216    1.35010300    0.33904200
Se   13.17303000   21.72828000    8.78009000      0.402992    0.27640200   -1.06447400
Se   12.97580000   21.79210000   18.38729000      0.381784   -0.00948300   -0.51359000
Se   19.00237000    4.42534000    8.91432000      0.058337   -0.24361700   -0.20321100
Se   18.54429000    4.28480000   18.24507000      0.144433    0.16062800   -0.03218600
Se   18.31068000   10.07726000    8.37571000      1.585159   -0.15200500   -0.69931400
Se   18.59850000   10.10849000   17.93785000      0.454825    0.22021700    0.40575000
Se   18.89104000   15.93523000    8.59765000      0.743161   -0.12176200   -0.72264600
Se   18.82460000   15.71504000   18.10428000     -0.617132    0.21852200    0.12125500
Se   18.85377000   21.49792000    8.59828000      0.251390    1.00328700   -0.15476700
Se   18.56300000   22.11199000   18.15403000      0.266356   -0.90936100   -0.13526200
Se    4.13624000    1.61227000    8.01037000      0.222943    0.83630100    0.30698600
Se    4.38640000    1.52717000   18.53940000      0.173905   -0.66742300   -0.46748900
Se    3.70970000    7.73515000    8.76099000      0.614459   -0.57191500   -0.29390600
Se    4.50819000    7.36279000   18.40044000      0.192300   -0.71624400    0.21370200
Se    4.60606000   13.13530000    8.27372000     -0.406547   -1.62618300    0.61863100
Se    4.73540000   12.96606000   18.50392000     -0.337069    0.34742800   -0.41297700
Se    3.78617000   18.96249000    8.34286000      0.534713   -0.53657900    0.47114000
Se    4.58280000   19.05834000   18.10833000      0.069039   -0.20149000    0.24166000
Se   10.18140000    1.91572000    8.86468000      0.921713   -0.55891600    0.19089300
Se   10.08459000    1.48719000   18.34916000     -0.102402    0.29667500   -0.02805700
Se   10.00168000    7.32439000    8.20423000      0.272669   -0.65601900    0.12003500
Se   10.17309000    7.50170000   18.29438000     -0.448498   -0.63525600   -0.23600200
Se    9.71252000   12.93162000    8.59054000      1.220284    0.20284400    0.64343300
Se   10.34909000   13.20743000   18.66453000     -0.965551    0.56599300   -1.20216600
Se   10.16408000   18.95621000    8.67383000      0.178832   -0.17456800    0.15076300
Se   10.42879000   19.36819000   18.09515000     -0.087450   -0.99409500   -0.00223000
Se   15.67764000    1.31545000    8.75835000      0.463472   -1.00686900   -0.32152200
Se   15.56597000    1.57939000   18.84982000     -0.146948   -0.12597700   -1.15832800
Se   16.23214000    7.42419000    8.62970000      0.146544   -0.74787400    0.38284700
Se   15.71996000    7.20398000   18.50842000      0.733304    0.78241100    0.56302000
Se   15.86235000   13.06573000    8.23895000      0.223014    0.08970200    0.88075400
Se   15.80940000   13.00449000   18.48322000      0.270630    0.17935800    0.17264700
Se   16.23549000   18.77906000    8.61554000      0.106449    0.29656600    0.11878700
Se   15.53731000   18.66281000   18.43070000      0.553609    0.62164000   -0.29553100
Se   21.82512000    1.49441000    8.50905000     -0.032542   -1.17331800    0.02898200
Se   21.34556000    1.51174000   18.33325000      0.883682    0.85069000    0.56271400
Se   22.04683000    7.25486000    8.47473000     -0.158081    0.33554300    0.22643200
Se   21.84476000    6.92564000   18.43658000     -0.160342   -0.37585100   -0.00465500
Se   21.51425000   12.95312000    8.67226000      0.779825   -0.30080700    0.20492400
Se   21.98246000   12.71294000   18.36277000      0.275561    1.37848500    0.23066600
Se   21.56702000   18.84365000    9.16118000     -0.092836    0.48761000   -0.92353800
Se   21.67218000   18.58956000   18.60217000      0.621591    0.05110400    0.07467700
Se    1.19521000    1.64779000    6.03049000     -1.051419    0.11478500   -0.28489500
Se    1.68946000    1.33710000   15.70735000     -1.192596    0.34258400   -0.10966100
Se    1.09866000    7.40871000    5.91076000     -0.319950   -0.92502700    0.49425800
Se    1.39505000    7.16426000   15.95216000      1.603683   -0.22748500    0.32023500
Se    1.21864000   12.91408000    6.30207000     -0.174615    1.17257900   -0.95595600
Se    1.67162000   13.25275000   16.05059000     -1.049113   -0.50185300    0.53871700
Se    1.27389000   18.80544000    5.77958000     -0.134852   -0.14709900   -0.02445400
Se    1.62854000   19.03566000   15.70740000     -1.176119    1.34553800   -0.72626300
Se    7.39329000    1.54553000    6.10781000     -0.908030    0.39764900   -0.87774400
Se    7.06762000    1.20483000   15.66803000     -0.461315    2.08326000   -0.94929000
Se    7.26746000    7.15403000    5.97772000      0.178979    0.44742300   -0.44419700
Se    7.34008000    7.36368000   15.99992000      0.959287   -0.31854200   -0.06279800
Se    7.21009000   13.12910000    6.29538000     -0.244876    0.07919900   -0.14218300
Se    7.66478000   13.14810000   15.97444000     -0.073899    0.67783000   -0.56921700
Se    7.44448000   19.22030000    6.38983000      0.439765    0.07216400   -0.09964300
Se    7.64104000   19.11374000   15.49273000     -0.332002   -0.83663300    0.52148500
Se   12.86070000    1.26735000    5.74342000      0.030723   -0.91519800    1.13884900
Se   12.77352000    1.51402000   16.01412000      0.385086   -0.42208300   -0.12875700
Se   13.33007000    7.27489000    6.55239000     -0.394302   -0.00920600   -0.83859400
Se   13.14036000    7.27510000   15.78406000     -1.114036   -0.23116500    0.63443900
Se   12.92376000   12.75990000    5.78751000      0.424883    0.47331700    0.00155400
Se   12.93672000   12.66485000   15.99120000     -0.046614    0.79880200   -0.50175000
Se   13.41393000   19.38272000    6.15296000      0.147559   -1.49653900    0.55129300
Se   12.58360000   18.61362000   15.50466000      2.516502    0.12254000    0.19595600
Se   18.53685000    1.14500000    6.06221000      0.691567    0.38459600   -0.24037300
Se   18.59968000    1.34890000   15.47392000      1.494997    0.19229500    0.58430700
Se   18.87138000    6.88508000    6.18089000     -0.505130    0.58902600   -0.10985700
Se   18.87338000    7.12187000   16.04629000     -0.514915    0.39178900   -0.56919100
Se   18.94637000   13.12799000    5.83389000     -0.006822    0.36574100    0.05655200
Se   19.34771000   12.86263000   16.04049000      0.856947    0.46407200   -0.53101100
Se   18.83973000   19.07352000    6.06751000      0.929143   -0.90450400    0.24268700
Se   19.49874000   18.39993000   15.62994000     -1.925649    0.94129900   -1.00454600
Se    4.10535000    4.22726000    5.94767000      0.064307    1.48995600    0.71871700
Se    4.59389000    4.25677000   15.88791000     -0.626929    0.72735100    0.77614100
Se    4.28578000   10.14666000    5.82182000     -0.612507    0.22213900    0.12460300
Se    4.21609000   10.28060000   15.98120000      1.201118    0.06939500   -0.01249600
Se    4.20360000   15.94501000    6.29511000      0.199307    0.48425500    0.52303700
Se    4.49325000   16.15206000   15.42136000     -0.365826    0.12468000    0.44130000
Se    4.28164000   21.70204000    5.98360000     -0.331214    0.59572000    0.05220000
Se    4.51568000   21.88252000   15.85209000      0.797012    0.32353900    0.35621400
Se   10.11194000    3.97038000    5.90433000     -0.447687    0.82993400    0.21354800
Se   10.10137000    3.95033000   16.35153000      0.936962    0.55861800   -0.13731100
Se    9.96826000   10.32259000    5.96892000      0.631807    0.36048900    0.45163700
Se   10.46974000   10.34710000   15.76967000      0.688652   -0.15345000   -0.07566000
Se   10.13921000   16.04870000    6.32036000      0.476722    0.56550600    0.47021800
Se   10.71362000   16.11385000   15.51641000     -0.771536    0.15358000    0.01192600
Se   10.43759000   22.32833000    6.26628000      0.544740   -0.00883600    0.29807700
Se   10.21177000   21.96641000   15.29470000     -0.337412    0.63076900    0.69240400
Se   16.02021000    4.30943000    6.13749000      0.280789   -0.64605100    0.08967400
Se   15.58786000    4.33972000   15.85198000      1.529526   -0.63026300   -0.54583700
Se   16.02702000    9.95815000    6.30867000      0.195094   -0.57602600   -1.25997000
Se   16.08196000   10.19894000   16.01127000     -0.381783   -0.34275000    0.11065600
Se   16.00791000   15.71355000    5.98106000     -0.293773    0.73434500    0.40421300
Se   15.75900000   15.89364000   15.47899000     -0.004327    0.57713300    0.79267000
Se   16.25358000   21.74831000    6.23368000     -0.183550    0.01792300   -0.61558500
Se   15.66882000   21.33858000   16.53595000      0.153469    0.10219900   -0.94074600
Se   21.66913000    3.91820000    6.50515000     -0.565473    0.59394100   -0.26901800
Se   21.74863000    4.22757000   15.99008000      0.017648   -0.85019300   -1.11433800
Se   21.62149000   10.08890000    6.09486000      0.084994   -0.13706600    0.31928900
Se   22.05370000    9.44853000   16.31347000     -0.371719    0.46827500   -0.29266500
Se   22.10451000   16.02814000    6.38372000     -1.429433    0.11874100   -0.54708100
Se   22.42187000   16.07518000   16.00119000     -1.452302   -0.90591100   -0.40721400
Se   21.78032000   21.43933000    6.08653000      0.697082    1.63018300    1.13937300
Se   22.03837000   21.87201000   16.10633000     -0.366165   -0.73441300   -0.17120300
Se    3.96401000    1.28251000    3.76024000      0.340564    0.27281800   -0.50816500
Se    4.61615000    1.54577000   13.51994000      0.134671    0.04847100   -0.53158500
Se    4.07247000    7.08588000    3.56182000     -0.138668    0.35816100    0.28767100
Se    3.97489000    7.26595000   13.10758000      0.582289    0.31199900    0.55621700
Se    4.41243000   13.15107000    3.87925000      0.362716    0.15794500   -0.67265700
Se    4.73895000   13.11675000   13.47449000     -0.288469   -0.23092600    0.02380300
Se    4.85972000   18.83794000    3.92126000     -1.267051   -1.25100800    0.37825800
Se    4.14943000   19.24715000   13.48261000      0.450455   -0.31178400   -0.92748500
Se   10.29483000    1.37233000    3.37076000      0.405265    0.10777800   -0.73620600
Se    9.87943000    1.46973000   13.60728000      0.113368    0.70768600   -0.48796700
Se   10.12346000    7.25521000    3.46931000     -0.578647   -0.25415500    0.78525600
Se   10.25146000    7.22962000   13.21551000     -1.056996    0.01434200    0.75955800
Se   10.28269000   13.30855000    3.60629000     -0.530119    0.93584200    0.56992100
Se   10.21737000   13.02359000   13.13072000     -0.533672    0.00827100    0.43133600
Se   10.53520000   19.16628000    3.96498000     -0.275887   -0.07629600    0.03745600
Se   10.18565000   19.25027000   12.79419000     -0.438886    0.28375300    0.39009200
Se   15.74447000    1.45019000    3.76984000      0.322634    0.82105700   -0.07243400
Se   15.94354000    1.62267000   13.58600000     -0.154947   -0.30420800    0.04917200
Se   15.73887000    7.04729000    3.69952000      1.350389   -0.30910200   -1.03073500
Se   15.91446000    7.18556000   13.67915000      0.116517    0.60957600   -0.34939800
Se   16.16599000   13.18858000    3.78336000      0.056744   -0.63000500   -0.22741800
Se   15.50449000   12.68379000   13.40269000      0.444729    0.59333200    0.04084700
Se   16.54783000   18.62309000    3.60926000     -0.776281    0.33533000    0.34695500
Se   16.43509000   18.75120000   13.68123000      0.499861    0.08529200   -0.29519000
Se   21.47053000    1.31648000    3.57437000      0.025167    0.09889400    0.20682000
Se   21.80338000    1.33051000   13.54733000      0.980247    0.37675900   -0.58203700
Se   21.41270000    6.95458000    3.48774000      0.731554    0.64532100    0.22194400
Se   21.51066000    7.30801000   13.20720000      0.285378    0.18201600    0.30358100
Se   21.71212000   13.26848000    3.66791000      0.406785    0.40318400    0.09092500
Se   22.03878000   12.97232000   13.46451000     -0.322247   -0.74220700    0.37584300
Se   21.41626000   18.86873000    3.11092000     -0.171991   -0.11962200    0.84030800
Se   21.82039000   19.12740000   13.24267000      0.613130    0.27858400    0.33383900
Se    1.25440000    4.23892000    3.39373000     -0.777899    1.44455400   -0.57213300
Se    1.69596000    4.36437000   13.19893000      0.479217   -0.01123000    0.94756200
Se    1.07723000   10.23247000    3.71393000      0.117504   -0.74075400   -0.00312000
Se    1.12308000   10.03666000   13.90465000      0.208088    0.50097000   -0.56756700
Se    1.65600000   16.13423000    3.50274000      0.277624   -0.74631500    0.78622800
Se    1.59049000   15.79615000   13.07525000      0.197376   -0.66084700    0.60837100
Se    1.49307000   21.63015000    3.62338000     -0.287726   -0.27202400   -0.40280800
Se    1.50213000   22.17282000   13.23493000     -0.301157    1.19777500    0.04944800
Se    6.90239000    4.16125000    3.66706000      0.353606   -0.60213000   -0.22977800
Se    7.07955000    4.80891000   13.60381000      0.495554   -1.07742300   -0.27257100
Se    7.11638000   10.20482000    3.64046000      0.125943   -0.80499500    0.11314200
Se    7.22388000   10.21758000   13.75266000     -0.062574   -0.11453400    0.06063600
Se    7.16057000   16.24956000    3.90995000      0.235483   -1.44867800   -0.17031800
Se    7.40300000   16.21175000   13.16146000      0.396692   -0.55966600    0.48558200
Se    7.24317000   21.74933000    4.25686000      0.594576    0.01259200   -0.49979800
Se    6.90389000   22.18613000   13.11470000     -0.469220   -0.73863000   -0.56259200
Se   12.90594000    4.64788000    4.04140000     -0.233451   -0.91839000   -0.73259900
Se   12.81786000    4.20971000   13.17366000      0.733006    1.42933100    1.06557700
Se   12.97383000   10.20309000    3.82198000      0.914971    0.07793300    0.59855100
Se   12.68049000   10.25654000   13.38801000      1.439552   -0.98578900    0.57812300
Se   13.16495000   16.14169000    3.67981000      0.479482    0.80615700    0.42622500
Se   13.01196000   15.72613000   12.89382000      0.606581    0.22543100    1.32853600
Se   13.39899000   21.79505000    3.70106000      0.624888    0.46011100    0.07341200
Se   13.27171000   21.69289000   13.46915000      1.095895    0.17928800    0.71132500
Se   18.67584000    4.38767000    4.09474000      0.106966    0.49635900   -0.30560500
Se   19.12788000    4.24190000   12.99618000     -0.920818    0.64926100   -0.40338700
Se   19.00701000   10.08397000    3.66371000     -0.080842   -0.36189500    0.74667800
Se   18.66344000   10.26956000   13.89263000      0.833341   -0.30828300    0.27938700
Se   18.96179000   16.19883000    3.06069000      0.030841   -0.53062400    0.57258100
Se   18.91429000   15.47602000   13.62452000     -0.383370    0.59390600   -0.20875600
Se   18.99726000   21.87452000    3.33360000     -0.670766   -0.08323100   -0.15552500
Se   19.14678000   22.14434000   13.75285000     -0.597783   -1.17018400   -0.34348700
