384
23.23808000 23.23808000 19.51320000
Ge    5.69920000    6.40771000    9.57798000      0.419139   -0.38264800    0.82806500
Ge    5.90623000    5.75199000    0.13790000     -1.011152   -0.90709300   -0.57529000
Ge    5.76542000   11.52672000    9.95845000      0.759941    0.72908500   -1.24440900
Ge    6.10578000   11.36865000    0.13297000      0.835476    1.23488800    0.47667000
Ge    5.45840000   17.69688000    9.71459000      0.359379    0.51523000   -1.18213900
Ge    6.04549000   17.52258000   19.38311000     -0.159345    0.13700000   -0.10272100
Ge    5.50822000    0.31768000    9.36775000      0.728878   -1.16894900    0.67887000
Ge    5.98443000   23.07484000   19.32140000     -0.201168   -0.37976000    0.74379900
Ge   11.56547000    5.76287000    9.28957000     -1.469342    1.37793500    1.87090500
Ge   11.76624000    6.15074000   19.47578000     -1.183370   -1.05179000   -0.50595200
Ge   11.49705000   11.52148000    9.46997000      0.308653    0.33470800    0.19847300
Ge   11.57436000   11.69340000    0.31684000      1.093678    0.13771900    0.53855100
Ge   11.78664000   17.48204000    9.73428000     -0.190829   -0.16796800   -0.55116600
Ge   11.67041000   17.65378000   19.29917000      0.086901   -0.17618800    0.12619500
Ge   12.14564000    0.39117000    9.74201000     -1.477292   -0.65964200   -0.62022500
Ge   11.51049000    0.03865000   19.45302000     -0.452904   -0.67670300    1.04088900
Ge   17.69258000    5.95671000   10.07619000     -1.741575   -0.53116900   -0.96636600
Ge   17.43591000    5.84312000    0.12043000      0.248636    0.31762400   -0.16722100
Ge   16.97967000   11.37374000    9.67836000     -0.059379    1.25011300    0.51146900
Ge   17.48856000   11.58979000   19.50492000     -0.960053   -0.59469100   -0.19786700
Ge   17.69838000   17.38680000    9.97618000     -0.546148   -0.41254400    0.49358400
Ge   17.38952000   17.41166000   19.33977000     -0.110118   -0.78037700   -0.10742500
Ge   17.34674000   22.89760000    9.91010000     -0.087201    0.96326500   -0.69627400
Ge   17.12201000    0.02475000    0.09963000      0.132819    0.58292600    0.43973200
Ge    0.09685000    5.71065000    9.80947000     -1.071925   -0.10412300    0.66916500
Ge    0.18636000    5.60128000    0.20264000     -0.629337   -0.32982500   -0.39575500
Ge    0.06004000   11.35897000    9.53234000      0.746921    0.67998200   -0.71629000
Ge    0.15537000   11.57204000    0.45052000     -0.601146   -0.37467500   -0.17321300
Ge    0.03535000   17.50006000   10.04524000     -1.481105   -1.37755000   -0.27836400
Ge    0.38679000   17.18404000   19.41741000     -2.182256    1.53018100    1.11005000
Ge    0.22489000   23.07954000    9.58865000     -0.841608    1.46641700   -0.26222900
Ge   22.95471000    0.00260000   19.27479000     -0.847368   -0.79343600   -0.77597400
Ge    2.63826000    6.10752000    7.22210000      0.172296   -1.21625200   -0.11345800
Ge    3.10935000    5.79423000   17.31004000     -0.868642   -0.19706800   -1.16595400
Ge    2.93921000   11.58430000    7.18825000      0.332616   -0.57890300    1.08338000
Ge    3.00005000   11.73682000   17.40668000     -0.757278   -0.46958200    0.42565900
Ge    2.42703000   17.29850000    7.25046000      1.313578    0.95312000   -0.60086800
Ge    3.12146000   17.68465000   16.75223000      1.500127   -0.43678100    0.61811200
Ge    2.67459000    0.15396000    6.87067000      1.445087   -1.25805200    0.28322000
Ge    3.09986000    0.07519000   17.02766000      0.005804    0.27930200    1.77884600
Ge    8.63807000    5.54594000    7.15271000      1.290868    0.75430300   -0.58638900
Ge    8.78847000    5.68387000   17.20154000     -0.275204    1.81804400    0.72281600
Ge    8.44235000   11.38635000    7.47118000     -0.605843   -0.14609500   -1.02929400
Ge    9.14082000   11.73917000   17.14249000     -0.053239    0.04837500    0.65733000
Ge    8.59729000   17.45100000    7.49766000      0.335299    0.67205200    0.19229500
Ge    9.25815000   17.67477000   16.82041000     -1.025317    0.19634700   -0.54368300
Ge    8.82930000    0.49009000    7.46928000      1.085270   -1.41057900    0.69830100
Ge    8.71289000    0.31841000   16.78554000      2.022868   -2.21132800    0.62598500
Ge   14.92266000    5.83561000    7.49309000     -1.255352    0.24653400    0.56083900
Ge   14.40953000    5.79141000   17.19995000      0.933415    0.68427900   -0.96137200
Ge   14.51075000   11.55382000    7.09432000     -0.991703   -0.29405500    0.04212800
Ge   14.46060000   11.46502000   17.29251000     -0.013572   -0.70587400    0.31279700
Ge   14.75766000   17.44594000    7.19156000      0.005565    0.47344800    0.11987600
Ge   14.27487000   17.31666000   16.95527000     -0.942187   -0.81477500   -1.01015700
Ge   14.56158000   23.06256000    7.21709000     -0.617641    0.60521400    0.37207400
Ge   14.42811000    0.07962000   17.18256000     -0.184240    0.22521600    0.33566400
Ge   20.40026000    5.88449000    7.59267000      0.278747   -2.18553800   -0.06542500
Ge   20.28595000    5.55164000   17.07546000     -0.728215    0.77479800    1.37800200
Ge   20.15400000   11.55913000    7.25977000     -0.689548    0.14585300    0.21251800
Ge   20.70054000   11.19239000   17.16980000     -1.180586    0.46154400    0.23044800
Ge   20.41243000   17.58638000    7.39416000     -0.127493   -0.43165400    0.25066700
Ge   20.56501000   17.05346000   17.12535000      1.425307    0.61700400    1.36627700
Ge   20.17957000   23.21137000    7.29519000      0.663571   -0.68831800    0.39976700
Ge   20.37142000    0.04685000   16.89593000     -2.122768    0.32640800   -0.17112000
Ge    2.57824000    3.01864000    4.69874000      1.152439   -1.13365100    0.86026500
Ge    3.10711000    2.98391000   14.65003000     -0.524792    0.25234800   -0.06120700
Ge    2.60511000    8.70197000    4.77056000      1.564618    0.51317100   -0.59509900
Ge    2.95206000    8.74543000   14.69966000     -1.235912   -0.73915600    0.72141900
Ge    2.87956000   14.50309000    5.07994000     -1.672604    0.04277700   -0.77734100
Ge    3.06062000   14.37677000   14.61825000     -0.052350    1.15351600   -1.00174500
Ge    3.00660000   20.09941000    4.78275000      0.541565    0.61712500   -0.36396200
Ge    2.88089000   20.94226000   14.50502000     -0.259729   -1.96225000    1.01551800
Ge    8.68381000    2.69647000    4.35287000     -0.132257    0.40248000    1.58835700
Ge    8.55916000    3.22385000   14.75316000     -1.233153   -1.28593500   -1.00696700
Ge    8.72475000    8.78038000    4.78479000     -0.820074   -0.74593100   -0.03828500
Ge    8.95596000    8.79297000   14.80512000      0.207984   -0.69116700   -0.80574200
Ge    8.68730000   14.64331000    5.14863000     -0.621224   -0.88907300   -1.61883300
Ge    8.97052000   14.67688000   14.45487000     -0.090512    0.05237000   -0.24120700
Ge    9.17366000   20.58182000    5.32840000     -0.874132    0.01172400   -0.50719600
Ge    8.60697000   20.74873000   14.08955000      0.640742   -0.48048300   -0.49542100
Ge   14.32853000    2.95876000    5.05321000      0.385847    0.21457500   -0.42580100
Ge   14.13728000    2.89443000   14.69897000     -0.041288    0.57569100   -0.84572900
Ge   14.59016000    8.59498000    4.82486000     -1.087532    1.54449800    2.03322600
Ge   14.53644000    8.84734000   14.78625000      0.515307    0.86717400   -0.91724100
Ge   14.41527000   14.47504000    4.79937000     -0.684297   -0.41603100   -0.20690000
Ge   14.21987000   14.32421000   14.61588000     -0.380477   -0.44331600   -0.51587900
Ge   15.04468000   20.21847000    4.72353000      0.150603    0.37642400   -0.20558100
Ge   14.63701000   19.98954000   14.64280000     -1.301667    0.10152500    0.51674700
Ge   20.10407000    2.75912000    4.97891000      0.047699   -0.01650900    1.01507100
Ge   20.28421000    2.86174000   14.49690000     -0.113816   -0.41202500    0.81419800
Ge   20.20703000    8.37692000    4.97586000      0.386483    1.36280800   -0.30524900
Ge   20.33664000    8.62699000   14.85051000     -0.742480   -0.16223400   -0.50294700
Ge   20.38250000   14.96467000    4.79206000      0.055645   -0.21910800    0.10094800
Ge   20.75562000   14.52161000   14.80017000      0.065205   -0.28350200    0.43979800
Ge   20.31921000   20.42971000    4.66440000     -0.629989   -0.93435500   -0.29577000
Ge   20.41748000   20.42527000   14.82679000      1.111882    0.67927800   -0.26991300
Ge    5.42006000    2.67147000    2.40611000      0.084798   -0.00732700    0.61861400
Ge    5.83858000    3.19265000   12.18764000     -0.142610    0.88302400    0.19496800
Ge    5.81052000    8.48618000    2.59545000     -0.883519    0.15555900   -0.44000000
Ge    5.81675000    8.74969000   12.45739000      0.144553    0.23093700   -0.37829200
Ge    5.82917000   14.64450000    2.36530000      0.673692   -0.00992500    1.15279700
Ge    5.79429000   14.74702000   12.11806000      1.236962    0.06420900   -0.26321700
Ge    6.28168000   20.13185000    2.71697000      0.254274    1.89697300   -0.68986500
Ge    5.21686000   20.62185000   11.76408000      1.226742    0.75484200    0.50788500
Ge   11.57697000    3.23676000    2.22633000     -0.082429   -0.40780100    0.97672500
Ge   11.29323000    2.82863000   12.08762000     -1.298640    0.31812000    0.02629900
Ge   11.59038000    8.84027000    2.62793000     -0.439569   -0.16387600   -1.37347900
Ge   12.03640000    8.37310000   12.13092000     -0.762021    0.86680400   -0.46849700
Ge   11.63501000   15.02533000    2.41707000     -0.861346   -1.58036700   -0.63922200
Ge   11.58850000   14.34575000   11.72460000     -0.765940    0.10391900   -0.20095500
Ge   11.81746000   20.62050000    2.45262000     -0.137965   -1.52425400   -0.01159300
Ge   11.98633000   20.58460000   11.95314000     -0.703146   -1.09011800   -0.84348000
Ge   17.44762000    2.91846000    2.73725000     -1.459788    0.20809900   -0.11859800
Ge   17.18698000    3.00034000   12.03893000      0.617221   -0.06749000    0.53735600
Ge   17.53137000    8.62694000    2.64892000     -0.912661   -0.52976800   -1.22014100
Ge   17.39600000    8.70299000   12.56080000      1.200585   -0.68336900   -0.20234800
Ge   17.27996000   14.51677000    2.19038000      1.485598    0.16735800    0.53996000
Ge   17.27654000   13.99585000   12.44483000     -0.079414    0.44120400   -0.42206100
Ge   17.45761000   20.29082000    2.22111000      1.035357    0.37974300   -0.22980000
Ge   17.93207000   20.39702000   12.44814000     -1.652122    0.34176800    0.42883700
Ge   23.22019000    2.54778000    2.34198000     -0.642678    0.12637400    0.51670800
Ge    0.16914000    2.82066000   12.28583000     -0.357479   -0.59462100   -0.22552500
Ge   22.87553000    8.70458000    2.48732000     -0.042884   -0.02970400   -0.16411100
Ge   23.13023000    8.81875000   12.22996000      0.269144   -0.52794300    1.06336500
Ge    0.22403000   14.53236000    2.46765000     -0.595438   -0.41684400    0.24683500
Ge    0.04868000   14.26218000   12.02667000      0.071535    0.80154000   -0.46203800
Ge   23.22916000   20.16863000    2.39396000      0.141251    0.97593800   -0.40329400
Ge    0.30698000   20.54264000   12.17624000     -2.049668   -0.88646800   -0.71150300
Se    1.26308000    1.09792000    0.94919000      1.366105    1.20211400    1.44973300
Se    1.68069000    1.32274000   11.04318000     -0.548677    0.09786300   -0.47961000
Se    1.34251000    7.55397000    1.07078000     -0.457745   -0.04696100    0.46945500
Se    1.32951000    7.26222000   11.19783000      0.585955   -0.27330800   -0.30481400
Se    1.77924000   12.92665000    1.53468000     -0.499344    0.20583700   -0.13527000
Se    1.55691000   12.76074000   10.76718000     -0.184383    0.59921000    0.05526900
Se    1.57076000   18.77661000    1.33197000      0.447778   -0.31182300   -0.36420900
Se    1.63962000   18.93098000   10.91501000      0.460978    0.67141000    0.58255000
Se    7.04582000    1.47161000    1.26125000      1.013114   -0.35614500   -0.31093800
Se    6.98628000    1.57470000   10.88318000      0.218564   -0.17257200   -0.50936100
Se    7.31983000    7.09267000    1.36844000      0.821222    0.44311100    0.41125000
Se    7.43688000    7.61016000   11.08326000     -1.006499   -0.48594100   -0.47481100
Se    7.56193000   12.91834000    1.63227000     -1.467085    0.43261500   -0.40424300
Se    7.36573000   13.14629000   10.94611000     -1.226918    0.02907200    0.10799000
Se    7.47593000   18.50486000    1.53558000      0.756345    0.10421700   -0.39552600
Se    6.94380000   19.31733000   10.65687000     -0.436199   -0.02698900    0.08673300
Se   12.96167000    1.64010000    1.01870000      0.060382    0.22254100    0.23776700
Se   13.19193000    1.59080000   11.38957000      0.639474    0.42182700   -0.17151400
Se   13.09213000    7.53665000    1.22516000      0.731285    0.07796700    0.51243900
Se   13.22238000    6.78561000   10.90119000      0.039494    0.02533600   -0.45133000
Se   13.18010000   13.20798000    1.48170000     -1.050824    0.23335900   -0.06023200
Se   13.04586000   13.02270000   10.54887000      0.363758   -0.69563600   -0.54357400
Se   13.23831000   19.16234000    0.89154000     -0.568595   -0.07037300    0.89653800
Se   13.28796000   18.51029000   11.23782000     -0.159297    1.03107500    0.09989300
Se   18.63112000    1.43100000    1.42517000      0.737988   -0.74016900   -0.52971100
Se   18.67801000    1.49003000   10.89275000     -0.195159   -0.50746400    0.04547500
Se   19.02638000    7.42633000    1.13487000     -0.832591   -0.59393300   -0.04516800
Se   19.11945000    7.09639000   11.41967000     -0.193470    1.29493400    0.69271900
Se   18.90316000   13.21973000    0.83080000      0.171925    0.35633600    0.86230300
Se   18.55427000   12.57453000   10.99369000      0.456531    0.31582100    0.17275400
Se   18.96305000   18.95459000    0.83574000     -0.494598   -0.27104700   -0.13009500
Se   19.28027000   18.79111000   11.46262000     -0.104803   -0.93164500   -0.88719000
Se    4.18456000    4.34948000    1.33007000      0.272304    0.63423400   -0.49518900
Se    4.38384000    4.78663000   10.98204000      0.187189    0.01707600   -0.16266400
Se    4.48935000   10.06083000    1.15404000     -0.091817   -0.72240900    0.51934100
Se    4.24428000   10.18781000   11.14841000      0.263561   -0.36609700    0.45276200
Se    4.43121000   16.11399000    0.96946000      0.362006   -0.46253300    0.06639100
Se    4.24165000   16.30855000   11.13480000     -0.588891   -0.46982100    0.27460400
Se    4.77546000   21.48068000    1.33846000      0.210820    0.25176000   -0.39066500
Se    3.80366000   21.93242000   10.24792000      0.944100    0.03837000    0.37728900
Se   10.06248000    4.64348000    0.98236000      0.673955    0.04183100    0.31059300
Se    9.86901000    4.76736000   10.86061000      1.312130   -0.80699700   -0.18406800
Se   10.02976000   10.29684000    1.47339000      0.361259   -0.21838800    0.16350400
Se   10.50831000    9.76755000   10.69723000     -0.586444   -0.34487800    0.50390200
Se   10.06165000   16.50560000    1.20383000      0.842777   -0.45319900    0.30205600
Se   10.19451000   15.88646000   10.53797000     -0.027277   -0.02034700    0.15621300
Se   10.05716000   21.77379000    1.42138000      0.502581    0.60556300   -0.51701200
Se   10.57447000   22.14922000   10.79026000     -0.056313   -0.29548900    0.26122800
Se   16.02226000    4.40483000    1.37028000     -0.011240   -0.18403900    0.42347900
Se   15.82136000    4.53392000   10.92725000      0.441556    0.31577500   -0.09544400
Se   16.05435000   10.07291000    1.35723000      0.423423    0.30020800   -0.15026100
Se   15.89057000    9.91740000   11.22450000     -1.093337   -0.11126300   -0.31672400
Se   15.78092000   15.80038000    1.01676000      0.202063    1.04801500   -0.66991300
Se   16.11122000   15.75584000   11.16513000      0.582974    0.35059100   -0.09607400
Se   15.77292000   21.48153000    1.02546000      0.220638    0.22770600    0.07393100
Se   16.02262000   21.39018000   11.13700000      0.673321   -0.23437300    0.45438700
Se   21.80203000    4.17231000    1.40526000      0.022842    0.60823200   -0.72263700
Se   21.82675000    4.23984000   11.17442000      0.458423    0.36427700   -0.61097400
Se   21.42924000   10.39886000    1.46868000      1.198711   -0.12431300   -0.00251700
Se   21.90304000   10.33593000   11.00826000     -1.823360   -0.28857600    0.39841700
Se   21.97462000   15.78786000    1.08316000      0.885235    0.16660300   -0.43615900
Se   21.58483000   15.80392000   10.94900000      1.903222   -0.03965700    0.26092100
Se   21.77967000   21.66659000    1.01159000     -0.252937   -0.58890800    0.35413900
Se   21.88130000   21.94091000   10.88602000      0.728344   -0.73763700    0.44349200
Se    1.36677000    4.28946000    8.46173000      0.657382    0.65996300   -0.38972900
Se    1.78472000    4.13801000   18.55022000     -0.341526    0.65795800   -0.10441100
Se    1.57554000    9.71331000    8.45891000     -0.112633    1.84916900   -0.16826700
Se    1.52126000   10.09529000   18.70178000      0.662932    0.18569600   -0.66320400
Se    1.14110000   15.95028000    8.55292000     -0.643130   -0.77666100    0.67659400
Se    1.69865000   16.11789000   17.90712000      0.767654   -0.94306100   -0.40626200
Se    1.31176000   21.75808000    7.88547000     -0.333104   -0.08085200    0.95342100
Se    1.74214000   22.01302000   18.68800000      0.139303   -0.17859600   -1.23698700
Se    6.87199000    4.63099000    8.36931000     -0.639657   -0.26887000    0.45462400
Se    7.26323000    4.18824000   18.28399000     -0.350744    0.66768700    0.52087600
Se    7.09534000    9.82498000    8.57793000     -0.485529    0.65429800    0.50966600
Se    7.71239000   10.18133000   18.38854000      0.065789   -0.26399300   -0.40735300
Se    6.77267000   16.19521000    8.32355000      0.030202   -0.33024300    0.44132800
Se    7.69237000   16.27160000   18.15840000      0.007956   -0.10751100   -0.34932100
Se    7.36560000   22.09003000    8.52285000     -0.508065    0.65390800    0.30205800
Se    7.48962000   21.77055000   17.87318000     -0.403924    0.18845400    0.53836600
Se   13.14540000    4.34175000    8.53794000      1.068238   -0.92074700   -0.80237500
Se   12.78209000    4.47392000   17.97998000     -1.214085   -0.61574000    1.53652900
Se   12.86151000   10.07396000    8.21187000      0.710817    0.41885400   -0.40865100
Se   12.92332000   10.06213000   18.71283000      0.546629    0.56200800   -0.67791400
Se   13.31895000   16.06484000    8.44066000     -0.534868   -0.11335300    0.16046500
Se   12.79924000   15.71175000   18.12561000      0.245148    1.32905700    0.35611300
Se   13.22026000   21.72487000    8.78409000      0.285606    0.43100800   -0.81354200
Se   13.00074000   21.80145000   18.40385000      0.022061    0.12287700   -0.31696300
Se   19.02655000    4.37841000    8.91336000      0.286325    0.13798600   -0.42888500
Se   18.57046000    4.25752000   18.26268000      0.353370    0.00904200   -0.21455500
Se   18.31756000   10.04194000    8.39220000      1.770936   -0.33163900   -0.85207200
Se   18.54946000   10.15206000   17.94155000      0.698518   -0.17787400    0.18345600
Se   18.94563000   15.90819000    8.58205000      0.354385    0.50727600   -0.41008500
Se   18.86634000   15.74115000   18.10757000     -0.688620    0.15513700    0.17540500
Se   18.86144000   21.49232000    8.63261000      0.144224    1.10302800   -0.05938100
Se   18.56407000   22.10739000   18.19925000      0.650213   -0.93083200   -0.52412000
Se    4.15780000    1.63791000    8.02874000     -0.094073    0.72179200   -0.04831500
Se    4.41125000    1.48961000   18.56422000     -0.019989   -0.62692600   -0.64940600
Se    3.71793000    7.73156000    8.73442000      0.671691   -0.59056200   -0.20528700
Se    4.51234000    7.36671000   18.40093000      0.148689   -0.48953600    0.22449800
Se    4.58433000   13.09978000    8.32171000     -0.348137   -1.33864100    0.51299200
Se    4.77339000   12.96988000   18.46526000     -0.296934    0.28317700   -0.24120200
Se    3.79225000   18.94986000    8.32192000      0.610609   -0.22828700    0.53617400
Se    4.64077000   19.04755000   18.15593000     -0.234756   -0.18269000   -0.08312300
Se   10.15226000    1.87905000    8.90394000      0.848468   -0.40943500    0.18442300
Se   10.10399000    1.51268000   18.34664000     -0.425217    0.54075800   -0.31317100
Se   10.00661000    7.36301000    8.22923000      0.134093   -1.25102600    0.08131100
Se   10.17704000    7.49376000   18.31398000     -0.511019   -0.77296900   -0.37860200
Se    9.70888000   12.92170000    8.57282000      1.238497    0.47292700    0.76768200
Se   10.36680000   13.25076000   18.63230000     -0.663750    0.21029900   -0.77382200
Se   10.17220000   18.95810000    8.67944000      0.068770   -0.38271300   -0.02806500
Se   10.37559000   19.35173000   18.07896000      0.212632   -0.78184500    0.21238100
Se   15.75206000    1.30712000    8.73992000      0.433136   -0.71519500   -0.25615600
Se   15.56667000    1.59897000   18.84517000     -0.095731   -0.20604600   -1.12975300
Se   16.25866000    7.38665000    8.60949000      0.407762   -0.29275100    0.56080200
Se   15.74255000    7.18853000   18.46267000      0.591041    0.40279700    0.49232500
Se   15.89409000   13.05299000    8.27393000      0.084277   -0.01277900    0.65434400
Se   15.81743000   12.99202000   18.41888000      0.311503    0.26565800    0.31854300
Se   16.20946000   18.74688000    8.61768000      0.158660    0.30848900    0.04779500
Se   15.54963000   18.73639000   18.38941000      0.580686   -0.02260600   -0.30983200
Se   21.79048000    1.53999000    8.49463000      0.094451   -1.44786900    0.04974600
Se   21.34179000    1.53686000   18.33499000      0.939841    0.66442000    0.55298500
Se   21.98437000    7.27888000    8.48767000      0.453993    0.50879400    0.53555400
Se   21.81106000    6.89928000   18.46215000     -0.076030   -0.18376800   -0.06649400
Se   21.52587000   12.93570000    8.67395000      0.461772   -0.60111900   -0.14682500
Se   22.02020000   12.73189000   18.36684000     -0.001109    0.86267400    0.14772700
Se   21.58066000   18.85131000    9.14525000     -0.203462    0.67286400   -0.93078500
Se   21.70261000   18.63240000   18.63670000      0.504608   -0.52298600   -0.38253300
Se    1.17366000    1.61816000    6.04306000     -1.244666    0.74234200   -0.63307300
Se    1.66613000    1.33452000   15.71531000     -0.835149    0.55435100   -0.26332300
Se    1.05815000    7.42028000    5.89404000     -0.136606   -0.92296700    0.52758100
Se    1.40003000    7.16325000   15.95773000      1.660541   -0.19158600    0.28358900
Se    1.23315000   12.88863000    6.28203000      0.264692    0.90790000   -0.68705400
Se    1.64964000   13.25117000   16.08178000     -0.669868   -0.48776500    0.31889100
Se    1.29327000   18.81390000    5.73941000     -0.426187   -0.46732100    0.31853800
Se    1.60563000   19.00901000   15.71514000     -0.841961    1.36965500   -0.74740800
Se    7.38770000    1.53401000    6.10513000     -1.230970    0.69340200   -1.25515100
Se    7.03082000    1.20490000   15.68424000     -0.795705    2.18479700   -1.13517900
Se    7.29866000    7.11702000    5.95056000     -0.050789    0.57394300   -0.53584400
Se    7.39872000    7.33743000   15.99267000      0.467514   -0.29684600   -0.04522500
Se    7.19292000   13.14094000    6.28742000     -0.266796   -0.08283000   -0.13104700
Se    7.67697000   13.13402000   15.95401000     -0.438839    0.64211300   -0.59027700
Se    7.45840000   19.23317000    6.39412000      0.384202   -0.11505700   -0.04588200
Se    7.63890000   19.10495000   15.49576000     -0.266840   -0.79374800    0.49401700
Se   12.86859000    1.25363000    5.76457000      0.518541   -0.70848100    1.07588900
Se   12.78023000    1.53140000   16.01836000      0.217233   -0.70668500    0.12255500
Se   13.30650000    7.26244000    6.52247000     -0.207529    0.24158400   -1.01795500
Se   13.21437000    7.27865000   15.80104000     -1.559795   -0.07770500    0.38357600
Se   12.90415000   12.80330000    5.72315000      0.735898    0.32928300    0.16402400
Se   12.90784000   12.65923000   16.00302000     -0.211341    0.95780800   -0.64529500
Se   13.45045000   19.34898000    6.15075000     -0.095440   -1.47690000    0.69821400
Se   12.59495000   18.62182000   15.54745000      2.307606    0.14504800    0.08241400
Se   18.48175000    1.12765000    6.04214000      1.060026    0.44449100   -0.17813700
Se   18.61336000    1.31904000   15.45479000      1.473246    0.17895300    0.67630400
Se   18.86201000    6.88837000    6.19443000     -1.030407    0.63278700   -0.25152300
Se   18.85294000    7.12069000   16.02624000     -0.008651    0.13059200   -0.33323500
Se   18.95922000   13.13030000    5.83305000     -0.137323    0.36131200    0.01130400
Se   19.31445000   12.87978000   16.01144000      0.958856    0.02172600   -0.06539700
Se   18.85215000   19.09603000    6.10172000      0.647924   -0.81503500    0.17972100
Se   19.47099000   18.40278000   15.62612000     -1.897236    0.69752800   -0.70277000
Se    4.10496000    4.25161000    5.93262000      0.003360    1.39747700    0.81904400
Se    4.60364000    4.25564000   15.91207000     -0.571428    0.78370900    0.84558600
Se    4.31662000   10.20268000    5.82420000     -0.601870   -0.40856400   -0.30877800
Se    4.23666000   10.27988000   15.99527000      0.885136   -0.20769700   -0.18167600
Se    4.18791000   15.95907000    6.29401000      0.144061    0.38991100    0.41538300
Se    4.47298000   16.12335000   15.42606000      0.099736    0.35367700    0.54029400
Se    4.27735000   21.72047000    6.02532000     -0.255058    0.42547900   -0.05232100
Se    4.49974000   21.85196000   15.86139000      0.886579    0.24623200    0.27497500
Se   10.12645000    3.98797000    5.89282000     -0.494726    0.70548900    0.04713500
Se   10.09338000    3.98487000   16.32295000      0.993061    0.04441100   -0.52299300
Se    9.99734000   10.31663000    6.00901000      0.522086    0.07526500    0.06112200
Se   10.52629000   10.35294000   15.75526000      0.003548   -0.05648900    0.10014200
Se   10.08295000   16.02247000    6.32043000      1.049379    0.59048200    0.55949700
Se   10.70169000   16.08732000   15.55415000     -1.084172    0.06577900   -0.07373600
Se   10.47250000   22.27128000    6.33262000     -0.055426    0.22459200    0.35581900
Se   10.25517000   21.96170000   15.27684000     -0.486033    0.88702200    0.84171700
Se   16.02010000    4.32698000    6.18194000      0.588177   -1.00617200   -0.28819700
Se   15.60765000    4.34117000   15.82904000      1.252652   -0.29671800   -0.19236600
Se   16.06199000    9.95559000    6.31848000     -0.156934   -0.41036700   -1.20986500
Se   16.10069000   10.24805000   15.99035000     -0.658006   -0.39873000    0.12571700
Se   15.99169000   15.71862000    5.97319000      0.395562    0.75086800    0.58282200
Se   15.76695000   15.89115000   15.49989000     -0.273963    0.40293900    0.66351500
Se   16.25946000   21.75943000    6.22012000      0.332002   -0.14249100   -0.59302000
Se   15.68804000   21.31044000   16.54056000      0.040237    0.26631600   -0.83664900
Se   21.63894000    3.93268000    6.46206000     -0.505582    0.67718200   -0.16211100
Se   21.76920000    4.24473000   15.98379000      0.321288   -1.02075000   -1.17176500
Se   21.59756000   10.08165000    6.07480000      0.225827   -0.52691200    0.08429500
Se   22.00967000    9.43946000   16.32274000      0.115708    0.39585200   -0.12734400
Se   22.06712000   16.02989000    6.34388000     -1.363588    0.28537900   -0.43197400
Se   22.39085000   16.09362000   15.99464000     -0.906607   -1.26698900   -0.68717500
Se   21.78920000   21.46975000    6.06454000      0.111067    1.31333300    0.69524300
Se   22.01588000   21.85224000   16.12597000     -0.257696   -0.90426200   -0.30890100
Se    3.97431000    1.28411000    3.77492000      0.259793    0.26335700   -0.47443900
Se    4.61734000    1.57632000   13.53355000      0.139594    0.05056100   -0.55323400
Se    4.12660000    7.05203000    3.58905000     -0.272357    0.82002100    0.28136800
Se    3.97831000    7.27755000   13.12380000      0.661517    0.16351500    0.32802700
Se    4.36784000   13.15456000    3.92016000      0.833586   -0.16033400   -1.09014500
Se    4.73207000   13.12625000   13.44703000     -0.391895   -0.43530300    0.26591200
Se    4.87698000   18.78886000    3.86948000     -1.876039   -1.25556800    0.89335600
Se    4.18379000   19.30247000   13.49038000      0.364309   -0.49216200   -0.96199600
Se   10.28971000    1.35227000    3.32526000      0.202508    0.74687600   -0.52543200
Se    9.87281000    1.42765000   13.58566000      0.012636    1.11748400   -0.44522600
Se   10.13192000    7.27038000    3.45640000     -0.741317   -0.26622800    0.85316800
Se   10.27207000    7.18845000   13.20768000     -0.971291    0.26941800    0.82833500
Se   10.33119000   13.29387000    3.58688000     -0.537450    1.21465600    0.54298000
Se   10.22519000   13.02431000   13.07909000     -0.671196   -0.12552900    0.69321400
Se   10.55465000   19.15796000    4.01732000     -0.058601   -0.10577900   -0.35030000
Se   10.19792000   19.26507000   12.75959000     -0.852961   -0.04275300    0.76488300
Se   15.75513000    1.47192000    3.75110000      0.244243    0.66112000   -0.01916700
Se   15.91699000    1.68186000   13.55848000     -0.041553   -0.74522400    0.23201000
Se   15.74811000    7.07044000    3.67460000      1.565734   -0.61872500   -1.19708300
Se   15.96975000    7.16161000   13.68367000     -0.223274    0.64932200   -0.15776000
Se   16.15071000   13.15000000    3.76764000     -0.019145   -0.47872100   -0.18747800
Se   15.50485000   12.66389000   13.43035000      0.462504    0.37270800   -0.08048400
Se   16.53668000   18.62540000    3.57571000     -0.815541    0.21816400    0.62174500
Se   16.38844000   18.70279000   13.66626000      0.224580    0.75944300   -0.15976200
Se   21.40307000    1.35580000    3.59426000      0.579153   -0.26236500   -0.26606900
Se   21.80122000    1.32735000   13.54382000      0.882653    0.30734800   -0.49272200
Se   21.43963000    6.97081000    3.52837000      0.718084    0.23224300   -0.00915700
Se   21.53342000    7.29075000   13.20777000      0.108096    0.27321700    0.54386100
Se   21.67229000   13.27834000    3.67947000      0.682524    0.22975600   -0.14745200
Se   21.99482000   12.98130000   13.48491000     -0.141124   -0.76860700    0.24822300
Se   21.38901000   18.89906000    3.08934000     -0.083607   -0.34011800    0.70419900
Se   21.79479000   19.14774000   13.26202000      0.664967    0.36854800    0.25912500
Se    1.28031000    4.26337000    3.39097000     -0.917889    1.06881800   -0.73602800
Se    1.71959000    4.38475000   13.18761000      0.087941   -0.31339100    0.70431900
Se    1.07246000   10.23795000    3.71844000      0.010628   -0.60475400   -0.11198300
Se    1.11195000   10.04407000   13.94371000     -0.019219    0.40569400   -0.80905200
Se    1.60438000   16.11263000    3.51041000      0.515103   -0.62636800    0.79305500
Se    1.59257000   15.82204000   13.07891000      0.128340   -0.87586900    0.62091900
Se    1.48463000   21.65107000    3.64911000     -0.051099   -0.57110500   -0.27956200
Se    1.48640000   22.21432000   13.24545000     -0.246437    1.32999100    0.01391500
Se    6.92702000    4.14063000    3.63961000      0.121276   -0.17493000   -0.16272800
Se    7.08027000    4.87147000   13.63945000      0.441873   -1.16647400   -0.27612700
Se    7.06688000   10.19124000    3.61469000      0.636280   -0.52323700    0.45211600
Se    7.24931000   10.20814000   13.80604000     -0.288592   -0.13070400   -0.14577200
Se    7.22660000   16.26959000    3.94327000     -0.019509   -1.48765600   -0.31956700
Se    7.38096000   16.24289000   13.19688000      0.312910   -0.82319600    0.43364800
Se    7.22258000   21.71846000    4.27141000      0.678668    0.12626400   -0.44218500
Se    6.89825000   22.18222000   13.11607000     -0.206670   -0.80237000   -0.53622200
Se   12.93531000    4.64420000    4.07855000     -0.434649   -0.61694600   -1.02021500
Se   12.83674000    4.23309000   13.14963000      0.543795    0.86602500    1.07205800
Se   12.97669000   10.19579000    3.79921000      1.009544    0.22439200    0.73580200
Se   12.74752000   10.25934000   13.36704000      1.265126   -0.95316900    0.58868700
Se   13.13859000   16.17198000    3.72335000      0.582405    0.91531000    0.41392400
Se   12.97605000   15.70732000   12.90788000      1.093542    0.73798500    1.58556400
Se   13.43432000   21.78500000    3.70457000      0.461149    0.52137200   -0.00653700
Se   13.27405000   21.69825000   13.45451000      1.216070    0.66048400    0.95816500
Se   18.65446000    4.41740000    4.11162000      0.105926    0.13845100   -0.50656800
Se   19.12646000    4.24841000   13.02389000     -0.713032    0.50124800   -0.18389400
Se   18.98710000   10.09293000    3.67050000      0.258957   -0.23286900    0.92104200
Se   18.65798000   10.27317000   13.87909000      0.785580   -0.52750700    0.12721300
Se   18.96787000   16.24477000    3.06817000     -0.115260   -0.87398000    0.54680800
Se   18.87666000   15.45591000   13.64227000     -0.449585    0.47994000   -0.30722700
Se   19.01137000   21.88012000    3.31850000     -0.795841   -0.09536100   -0.13499800
Se   19.11740000   22.20268000   13.70111000     -0.490414   -1.39881100   -0.19239300
