384
23.23808000 23.23808000 19.51320000
Ge    5.76935000    6.26117000    9.63634000     -0.402725    0.49143100    0.20392800
Ge    5.74976000    5.78186000    0.10268000      0.358863   -0.92165000    0.78479300
Ge    5.79088000   11.69356000    9.88977000      1.108256   -1.65156700    0.38000900
Ge    6.07130000   11.36619000    0.19557000      1.028041    0.58983400   -0.27429400
Ge    5.42087000   17.64884000    9.57293000     -0.185594   -0.87377200    0.66774500
Ge    6.03829000   17.43512000   19.38873000      0.736397   -0.53680100   -0.17543300
Ge    5.43821000    0.19421000    9.41785000      0.579003   -0.00643600    0.51833300
Ge    6.11718000   23.02204000   19.29402000     -0.303766   -0.02255400    1.38561500
Ge   11.42643000    5.69901000    9.50898000      3.036334    1.60728300   -1.52056800
Ge   11.67429000    6.06009000   19.47285000     -0.507772    0.13262600    0.40732600
Ge   11.49772000   11.58005000    9.43065000     -0.389288   -0.99836800   -0.15772800
Ge   11.64886000   11.67444000    0.30163000     -0.284753    1.21118400    0.37972200
Ge   11.77471000   17.45752000    9.66776000     -0.814774   -0.60728900   -0.04280900
Ge   11.70557000   17.71749000   19.31836000     -0.734164   -0.02771100   -0.06110400
Ge   12.02282000    0.35305000    9.74598000      0.026962   -0.49801100    0.21190200
Ge   11.37491000    0.04927000   19.47159000      0.312697   -0.73451600    0.53140300
Ge   17.70498000    5.82016000   10.01391000     -0.317399   -0.04186700    0.05211200
Ge   17.44590000    5.72942000    0.02820000     -0.125130    0.78769000    0.64635400
Ge   17.02182000   11.30877000    9.69127000      0.345866   -0.03077100    0.12220800
Ge   17.35744000   11.54829000    0.03543000      0.139913    1.36912000   -0.01846900
Ge   17.67708000   17.34574000   10.05417000      0.344905   -0.56558600   -0.54138100
Ge   17.37243000   17.36712000   19.45285000     -0.021312    0.57479900   -0.88145900
Ge   17.33885000   23.06469000    9.88568000      0.249131   -1.69675700    0.29609100
Ge   17.18471000    0.12290000    0.04496000     -0.672016   -0.24374300    0.51440200
Ge    0.03592000    5.70225000    9.84046000     -0.344912    0.52457700    0.21318200
Ge    0.14707000    5.54735000    0.09977000      0.162096   -0.12288100    0.40262600
Ge    0.10533000   11.40511000    9.51451000     -0.681829    0.07784400    0.46526600
Ge    0.16005000   11.51580000    0.51685000     -0.837586    0.58554200   -0.52653200
Ge   23.16999000   17.43162000    9.93221000     -0.278593    0.08164000    0.78603100
Ge    0.39879000   17.29570000   19.37084000     -0.558282    0.20735300    0.42346200
Ge    0.18673000    0.00808000    9.63184000     -1.346301   -0.01651100   -0.56826800
Ge   22.92163000   23.21619000   19.27808000      0.486100    0.12691400    0.05861400
Ge    2.53532000    6.06213000    7.24430000      0.388228   -0.34582100   -0.39250700
Ge    3.04556000    5.83393000   17.23056000      0.061300   -0.59877800   -0.12619600
Ge    3.08503000   11.41421000    7.23485000     -2.172741    0.77332500    1.02750200
Ge    3.02161000   11.69545000   17.46500000     -0.127628    0.09839100   -0.61374700
Ge    2.50013000   17.38074000    7.25779000     -0.502440   -0.32169300   -0.56752700
Ge    3.26384000   17.64414000   16.79171000     -0.318958    1.19161600    0.08308000
Ge    2.72393000    0.13372000    6.80919000     -0.742301    0.15254300    1.58074300
Ge    3.10420000    0.05678000   17.05698000     -0.391488    0.29881900    0.49916800
Ge    8.75759000    5.51159000    7.04888000     -0.078343    1.50787600    0.79736100
Ge    8.76346000    5.68772000   17.19206000      0.599203    0.31041400    1.12366700
Ge    8.44341000   11.40249000    7.29399000     -0.708711   -0.11245900    0.63323700
Ge    9.15799000   11.82527000   17.21714000      0.086282   -1.02855400   -0.69927200
Ge    8.61009000   17.43774000    7.46013000     -0.065689    0.63460800    0.65897600
Ge    9.14779000   17.64612000   16.81964000     -0.351262   -0.25854700   -0.86453100
Ge    8.71868000    0.39999000    7.54530000      0.956388   -0.83788600   -0.21812500
Ge    8.74679000    0.31242000   16.82812000      0.217557   -0.90795100   -0.51690600
Ge   14.90393000    6.01546000    7.33081000     -1.254501   -1.44924500    0.85777100
Ge   14.36859000    5.70784000   17.17305000      1.547777    0.19442900   -0.43589200
Ge   14.43824000   11.64760000    6.99420000      0.295312   -0.04067600    0.30626000
Ge   14.32444000   11.42036000   17.28847000      0.667098    0.01568000   -0.02061300
Ge   14.75196000   17.30428000    7.20976000     -0.251172    1.04481700    0.79697500
Ge   14.15852000   17.23746000   16.90326000      1.335245    0.12537700    0.30753300
Ge   14.76502000   23.06854000    7.35729000     -1.812285    0.09969000   -1.04488200
Ge   14.47587000    0.05142000   17.23266000      0.038218    0.46612300   -0.32389400
Ge   20.41428000    5.86860000    7.52984000     -0.332603   -1.42660300   -0.04772700
Ge   20.31168000    5.56884000   17.13829000     -0.713151    0.04941600   -0.34400300
Ge   20.10964000   11.45138000    7.11329000     -0.239699    0.81183700    1.33204800
Ge   20.58161000   11.17324000   17.24345000     -0.048221    1.53851200    0.31208900
Ge   20.34417000   17.68531000    7.37217000      0.636278   -1.48181600    0.67564900
Ge   20.76820000   17.08565000   17.10700000     -1.863451    2.27436900    1.60587600
Ge   20.12234000   23.08954000    7.29973000      0.732983    0.22959500   -0.12799200
Ge   20.31055000    0.08685000   16.89889000     -0.578856   -0.24340000    0.98233700
Ge    2.64209000    2.98656000    4.78783000     -0.706142    0.20312900   -0.06414900
Ge    3.07276000    3.12274000   14.65586000     -0.344122   -0.83299100    0.43384800
Ge    2.61902000    8.78852000    4.67522000      1.218212   -1.06210800    0.62172400
Ge    2.83976000    8.73532000   14.63058000      0.496201    0.20630700    1.47172700
Ge    2.75760000   14.51130000    4.98846000     -0.684359    0.38440100    0.56150500
Ge    3.07204000   14.45279000   14.61408000     -1.390551   -0.75711600   -0.61581900
Ge    3.08641000   20.08210000    4.89303000      0.376147    0.34730400   -1.06671600
Ge    2.77809000   20.87193000   14.52175000     -0.344223   -0.66901500    0.51524200
Ge    8.66454000    2.77099000    4.38481000      1.178251   -1.25090800    1.05329100
Ge    8.30086000    3.09955000   14.71080000      1.077377   -0.28644600   -0.15865800
Ge    8.66626000    8.76584000    4.80546000      0.384915    0.17681900   -0.23716800
Ge    9.00781000    8.70777000   14.74795000      1.500734    0.03647300   -0.41211800
Ge    8.58576000   14.55458000    5.00200000      1.361011   -0.85938700   -0.09602000
Ge    8.85831000   14.59179000   14.36439000      0.905128    0.78704600    0.18481800
Ge    9.15572000   20.54848000    5.25414000      0.094017    0.63024500    0.53241600
Ge    8.72506000   20.72453000   14.16808000     -0.521201   -0.57082400   -0.56716000
Ge   14.38851000    3.01894000    4.97281000      0.187252   -0.96144000    0.99214900
Ge   14.10818000    2.96365000   14.78346000      0.084290    0.75198400   -1.21469700
Ge   14.64029000    8.73448000    4.85477000     -0.225203   -0.56321500    0.31305900
Ge   14.63524000    8.97884000   14.70094000      0.462280   -1.21048700   -0.23209000
Ge   14.47851000   14.57316000    4.72676000     -0.633283   -0.63366000   -0.43031500
Ge   14.22228000   14.22343000   14.57286000     -0.159345    0.67285800    0.32943400
Ge   15.09107000   20.25231000    4.79042000     -0.441179   -0.28349300   -0.48462200
Ge   14.43314000   20.11516000   14.70057000      1.200352   -1.13784100    0.22198100
Ge   20.02522000    2.75460000    4.99209000     -1.180476    0.78043600    0.91896000
Ge   20.31345000    2.82484000   14.66896000      0.266680    0.60308400   -0.86069600
Ge   20.12467000    8.34531000    4.90059000      0.376462    1.11625500    0.39042100
Ge   20.27752000    8.67309000   14.83556000     -0.453725   -0.64468800   -0.39830400
Ge   20.41678000   14.93837000    4.80987000     -1.305349    0.23196500   -0.55484100
Ge   20.61683000   14.41530000   14.94115000      0.628925    1.07748500   -1.44410900
Ge   20.20345000   20.32613000    4.60918000      0.837079    1.02526600    0.89109500
Ge   20.29810000   20.47247000   14.81373000      0.480756    0.39948900   -0.26311200
Ge    5.42471000    2.67616000    2.48257000      1.350645   -0.79888800   -0.69528600
Ge    5.86272000    3.33729000   12.24590000      0.640678   -0.38299900   -0.52951600
Ge    5.86303000    8.46893000    2.49500000     -1.035156   -0.87701300    0.52793000
Ge    5.90060000    8.72924000   12.48610000     -1.191457    1.40698800    0.57391100
Ge    5.86717000   14.58216000    2.47615000     -0.135780    0.60856100    0.60177300
Ge    5.94009000   14.69898000   12.11689000     -0.657578    0.92567000   -0.07899700
Ge    6.16712000   20.23694000    2.72786000      0.560787   -1.57506300   -0.24167800
Ge    5.40698000   20.66450000   11.71293000     -0.136811    0.63957400    0.82158100
Ge   11.62492000    3.31095000    2.13807000     -1.181017   -0.21269100    1.59667700
Ge   11.20148000    2.85507000   11.95429000      0.263505    0.45741700    0.88262700
Ge   11.64721000    8.78257000    2.49555000     -0.275178    0.05908800    0.56719300
Ge   11.91070000    8.51972000   12.04896000     -0.031248   -0.72936100   -0.20087700
Ge   11.67620000   15.03362000    2.32886000      0.047666   -0.52407500    0.69360100
Ge   11.54144000   14.44220000   11.71462000     -0.351116   -0.15904800    0.10080300
Ge   11.77888000   20.59208000    2.47220000      0.073373   -0.59814100    0.34680600
Ge   11.86557000   20.55316000   12.03067000      0.579504    0.63794000   -1.36407600
Ge   17.41337000    2.92487000    2.70138000      0.447840    0.57292300    0.72598700
Ge   17.28290000    3.07427000   12.12891000      0.223928   -0.52572200    0.07527100
Ge   17.58563000    8.61547000    2.56856000     -1.394555   -0.15861200   -0.79003300
Ge   17.49677000    8.50708000   12.49303000      0.925569    0.87091900   -0.22571700
Ge   17.25379000   14.48586000    2.22581000      0.918138    0.93630000    0.00788700
Ge   17.20083000   13.88642000   12.32560000     -0.169428    1.80090700    0.65457200
Ge   17.56651000   20.28543000    2.24331000     -0.374178    0.45879300   -0.27182000
Ge   17.79873000   20.45182000   12.46103000     -0.718459   -1.09247500    0.07051600
Ge   23.18891000    2.57140000    2.33053000     -0.533782    1.01594500    0.78225700
Ge    0.10484000    2.70285000   12.29152000      0.411274    1.14403700   -0.17301200
Ge   22.90480000    8.67152000    2.43330000      0.589874   -0.42580100   -0.04720900
Ge   23.17385000    8.68235000   12.31245000     -0.569379    1.57201300    0.30164800
Ge    0.15839000   14.45636000    2.40378000     -0.290977   -0.23084100    0.69198900
Ge   23.23052000   14.33433000   12.06104000     -0.406126    0.23211800    0.25057700
Ge    0.03967000   20.24824000    2.42635000     -0.216267    0.11286900   -0.54564600
Ge    0.21821000   20.56247000   12.20689000     -0.070359    0.04746600   -0.35657600
Se    1.34230000    1.14154000    1.03995000     -0.258921    0.19023900    0.35526100
Se    1.64388000    1.39519000   10.99854000      0.067168    0.25602400   -0.37270900
Se    1.43609000    7.54558000    1.01334000     -1.242985   -0.50231000    0.33886100
Se    1.41370000    7.31303000   11.22240000      0.549599   -0.98798400   -0.91330400
Se    1.77221000   12.87927000    1.64556000     -0.458492   -0.03276400   -0.28071600
Se    1.46304000   12.86700000   10.79198000      0.222368    0.45229700    0.15390000
Se    1.60880000   18.75696000    1.35608000      0.265146    0.08661100   -0.02238000
Se    1.66582000   18.98422000   10.83749000     -1.112833    0.15975000    0.51435300
Se    7.24842000    1.43191000    1.15637000     -0.708725    0.05785000    0.34738600
Se    7.07471000    1.56203000   10.78412000     -0.903509    0.34662800    0.23853900
Se    7.35961000    7.04267000    1.44203000      0.056826   -0.38402200   -0.57887700
Se    7.31176000    7.61056000   11.12467000      0.826448   -1.32272900   -1.18434900
Se    7.51400000   13.01893000    1.63018000     -0.792323   -0.18718600   -0.44197500
Se    7.39669000   13.16812000   10.97832000     -0.392105   -0.15557100   -0.27359000
Se    7.39649000   18.33327000    1.56989000      0.461702    1.19335600    0.42493700
Se    6.89547000   19.22215000   10.62866000      0.456617   -0.35734000   -0.27450500
Se   12.83481000    1.68170000    0.98541000      0.928701   -0.37487200   -0.24734300
Se   13.27891000    1.73083000   11.37398000     -0.931914   -0.27495800   -0.87955500
Se   13.14950000    7.53645000    1.24761000      0.350713   -1.18220200   -0.60792400
Se   13.25023000    6.87676000   10.81368000     -0.883824    0.37787700    0.00011200
Se   13.17588000   13.28700000    1.51195000     -0.505931   -0.20853900   -0.43154100
Se   12.93225000   12.97854000   10.51674000      1.316140    0.40124500    0.34122900
Se   13.20590000   19.21198000    0.89807000     -0.129240    0.02067400    0.66922400
Se   13.20304000   18.56671000   11.15865000      0.069509    0.88549300    0.35613700
Se   18.63788000    1.49501000    1.35458000      1.034720   -0.73669200   -0.30637500
Se   18.69568000    1.40874000   10.92379000      0.225697    0.67268600    0.71499300
Se   19.00171000    7.30180000    1.22488000     -0.172476   -0.66465900   -0.50637800
Se   19.22112000    7.12838000   11.47263000     -0.847826    0.08271300   -0.64676300
Se   18.92668000   13.27475000    0.90612000     -0.935802   -0.56206900    0.26371600
Se   18.51905000   12.55096000   11.04448000      1.436874   -0.20356700   -0.50036600
Se   18.99803000   19.04009000    0.86374000     -0.406795   -1.12246800   -0.48446400
Se   19.24474000   18.71298000   11.42945000     -0.672987    0.04290100   -0.25559300
Se    4.14171000    4.24579000    1.34820000      0.087418    0.85563200   -0.58389100
Se    4.39529000    4.76642000   10.97962000     -0.201939    0.08609500   -0.16631100
Se    4.47467000   10.00241000    1.37440000     -0.332601    0.37939900   -0.69688800
Se    4.37594000   10.19409000   11.14203000      0.352682   -0.10051200    0.44999300
Se    4.47480000   16.01777000    0.89428000      0.015470   -0.96822100    0.61088400
Se    4.13230000   16.27028000   11.21135000      1.010604   -0.16804700   -0.48248800
Se    4.80028000   21.46343000    1.36026000     -0.485671    0.95451900   -1.06355600
Se    3.77346000   21.81827000   10.26307000      0.992733    0.13806900    0.35111400
Se    9.92221000    4.68853000    0.96103000      1.239522   -0.40127100    0.57113800
Se    9.89177000    4.73953000   10.72732000     -1.502073   -1.81671400    1.74804200
Se   10.10061000   10.23874000    1.52385000      0.078722    0.63719500   -0.45136100
Se   10.41307000    9.79997000   10.68952000     -0.398134    0.17943800    0.01365000
Se   10.14118000   16.51615000    1.24341000      0.414133   -0.13350700    0.02439000
Se   10.06647000   15.79427000   10.53231000      0.574035    0.94332800   -0.30131400
Se    9.97838000   21.91713000    1.46195000      0.780836   -0.29741500   -0.07565600
Se   10.41005000   22.15391000   10.78682000      0.984124   -0.54703400    0.49110800
Se   16.07929000    4.35544000    1.50161000     -0.965479    0.97968300   -1.03394000
Se   15.88031000    4.52770000   10.94589000      0.216262    0.14960800   -0.17413300
Se   16.01866000   10.03271000    1.21078000      0.196275   -0.36048200    0.64425900
Se   15.92490000    9.93624000   11.33014000     -0.440757   -0.32474800   -0.37212300
Se   15.67986000   15.98083000    0.99506000      0.981316   -0.24886600    0.23683300
Se   16.13702000   15.79599000   11.13895000      0.040626   -0.22262400    0.23798200
Se   15.83202000   21.43208000    1.02114000      0.767030    0.82288300   -0.12361800
Se   16.02544000   21.40213000   11.14122000      0.538291    0.34760100   -0.26689100
Se   21.74211000    4.27203000    1.39409000      0.606595   -0.07962300   -0.49326600
Se   21.83345000    4.24399000   11.16457000      0.273279    0.09134400   -0.25602200
Se   21.45849000   10.34356000    1.54267000      0.753008    0.22978000   -0.37497200
Se   21.85814000   10.31230000   11.07353000      0.099052   -0.52131900    0.01761000
Se   22.06252000   15.82259000    1.05926000      0.293231    0.34350400   -0.66237300
Se   21.56266000   15.88493000   11.03490000      1.438009   -0.16141900    0.18771500
Se   21.73542000   21.59344000    0.99095000      0.172388   -0.16546900    0.33738900
Se   21.88195000   22.04280000   11.10014000      0.576853   -0.18360800   -0.57879200
Se    1.40057000    4.28130000    8.47807000      0.053849    0.63322700    0.04468200
Se    1.75086000    4.12115000   18.43426000     -0.360682    0.74944400   -0.04558700
Se    1.51866000    9.78855000    8.46533000      0.331340    1.00750700   -0.32984900
Se    1.58723000   10.19119000   18.74488000      0.726230   -0.82249300   -0.61387800
Se    1.13059000   15.97387000    8.57041000      0.200717   -0.68212600   -0.32361100
Se    1.79006000   16.09509000   17.79226000     -0.312183   -0.18150900    0.86243900
Se    1.29399000   21.67392000    8.06085000      0.038441    1.30554300    0.45708200
Se    1.68103000   21.99251000   18.55058000     -0.201683   -0.22593300   -0.66524700
Se    6.81688000    4.61922000    8.27333000      0.372853   -0.28320400   -0.04028800
Se    7.23565000    4.27042000   18.42017000     -0.088510    0.27253200   -0.03566300
Se    7.04226000    9.85623000    8.63887000      0.269817    1.46286500   -0.19611500
Se    7.84663000   10.06083000   18.36696000     -0.619762    1.04691800    0.23127600
Se    6.71105000   16.12751000    8.22101000      0.439981    0.14746900    0.37264600
Se    7.77932000   16.21725000   18.10490000     -0.804699   -0.42307300    0.24330900
Se    7.39098000   22.01906000    8.75726000     -0.472429    0.57120600   -0.20501300
Se    7.52250000   21.72381000   17.90763000      0.173495    0.01827000   -0.07312400
Se   13.22871000    4.29472000    8.42967000     -0.321576    1.16090800    0.01844400
Se   12.66566000    4.40646000   18.07695000      0.088489   -0.32158200    0.38605900
Se   12.90935000   10.13873000    8.12328000      0.260475    0.33170100    0.06248600
Se   12.98923000   10.03389000   18.80630000      0.506904    0.05775200   -0.72198200
Se   13.27654000   15.97507000    8.48842000     -0.441364   -0.28693300    0.03117200
Se   12.59123000   15.82074000   18.06334000      0.518203    0.69435300    0.44489900
Se   13.37101000   21.74871000    8.75088000     -0.432111    0.28695200    0.04542900
Se   13.06105000   21.84014000   18.44089000     -0.797097    0.06610200    0.28391900
Se   19.11983000    4.25906000    8.87862000      0.170325    0.60747500   -0.26398300
Se   18.67953000    4.16896000   18.29338000      0.401275   -0.25761100   -0.35297700
Se   18.46003000    9.92111000    8.38374000      0.913505    0.47789600   -0.38804900
Se   18.46086000   10.25380000   17.95499000      0.821423   -1.01520300   -0.05326800
Se   19.11735000   15.88220000    8.51625000     -0.551938    1.19419100    0.28972500
Se   18.94639000   15.83369000   18.13016000     -0.366158    0.30526700    0.14395700
Se   18.89185000   21.55210000    8.73152000     -0.092575    0.69715300    0.07271300
Se   18.62365000   22.03171000   18.28993000      0.763230   -0.27589900   -0.68746300
Se    4.20804000    1.74603000    8.07113000     -0.203724   -0.74875100   -0.25540900
Se    4.48032000    1.34029000   18.59003000     -0.148732    0.08225900   -0.43032300
Se    3.79232000    7.67234000    8.64339000      0.668243   -0.94985100    0.02808000
Se    4.52710000    7.35416000   18.41232000     -0.509826    0.14803100   -0.30524700
Se    4.48783000   12.92902000    8.48716000     -0.867232    0.98344300   -0.59737200
Se    4.87056000   12.99063000   18.34019000     -0.201624   -0.33551600    0.27445500
Se    3.85452000   18.91646000    8.29744000      0.505541    1.12174900    0.44605200
Se    4.77902000   19.01007000   18.27385000     -0.973491    0.37766000   -0.92988300
Se   10.12067000    1.74934000    9.02596000      0.248571    0.18995700   -0.43188000
Se   10.12267000    1.63336000   18.31042000     -0.510110    0.15825700   -0.43192000
Se   10.02831000    7.37328000    8.30946000     -0.007390   -1.63866900   -0.08296200
Se   10.15077000    7.42123000   18.33982000     -0.519001   -0.08899100   -0.63086600
Se    9.77395000   12.92521000    8.56618000     -0.044586    0.12663800   -0.12132900
Se   10.38751000   13.37523000   18.50195000      0.182926   -0.69365500    0.55495800
Se   10.19677000   18.93248000    8.68901000     -0.243447   -0.28819600   -0.32519000
Se   10.23995000   19.25830000   18.05727000      0.745983   -0.01081000    0.69261900
Se   16.00343000    1.26025000    8.67469000     -0.144960    1.48039300   -0.20509900
Se   15.56535000    1.63958000   18.75309000      0.198312   -0.22978300   -0.75380600
Se   16.37506000    7.27634000    8.59448000      0.265473    0.72709800    0.42850100
Se   15.85011000    7.15780000   18.36096000      0.238286   -0.33710200    0.39347000
Se   15.98198000   13.00690000    8.41581000     -0.625079   -0.15071100   -0.23811100
Se   15.86018000   12.97525000   18.25272000     -0.079756    0.21939100    0.44899700
Se   16.14440000   18.66659000    8.62947000      0.378051    0.02978700    0.22296100
Se   15.62525000   18.92301000   18.24392000      0.203428   -1.61164000   -0.14095900
Se   21.69372000    1.56932000    8.45290000      0.210206   -1.45145000    0.05046600
Se   21.39210000    1.64574000   18.37247000      0.432544   -0.39543700   -0.12624200
Se   21.84240000    7.38416000    8.57263000      0.538257   -0.39872800    0.55840500
Se   21.70724000    6.82642000   18.53177000      0.249929    0.93493800    0.02711300
Se   21.58236000   12.83331000    8.65718000     -0.260147   -0.51766100   -0.72092400
Se   22.12196000   12.82484000   18.38280000     -0.582719   -0.47878800    0.01465300
Se   21.60635000   18.92862000    9.02870000     -0.099768    0.65257200   -0.78794500
Se   21.82356000   18.71285000   18.69948000     -0.187033   -0.38822400   -1.02992900
Se    1.03445000    1.58234000    6.03001000      0.309718    0.30146500   -0.51175900
Se    1.56063000    1.36894000   15.72315000      0.634130    0.54766300    0.03833200
Se    0.95248000    7.39802000    5.87714000      1.297746   -0.23641600    0.19460500
Se    1.52084000    7.14971000   15.99054000      0.095080    0.14275700   -0.10333000
Se    1.31554000   12.86391000    6.18458000      0.897994    0.19933700    0.06307600
Se    1.55966000   13.21782000   16.18869000      0.556485   -0.11544900   -0.30725300
Se    1.31123000   18.79736000    5.65601000     -0.466092   -0.45402300    0.81426700
Se    1.50580000   19.01121000   15.69817000      0.746604    0.35109000   -0.01628000
Se    7.29586000    1.54482000    6.01746000      0.040746   -0.02278300   -0.03197200
Se    6.88548000    1.33752000   15.66724000      0.629292    0.30792600    0.01591600
Se    7.37968000    7.04713000    5.83424000     -0.567065    0.30831800   -0.12261300
Se    7.58346000    7.24401000   15.96523000     -1.149306    0.40892600   -0.40528500
Se    7.12254000   13.16343000    6.25519000     -0.201423   -0.43747900   -0.07730200
Se    7.67337000   13.13148000   15.85506000     -0.658089   -0.03644300   -0.00986400
Se    7.52353000   19.26005000    6.40425000     -0.164284   -0.28172400   -0.02959000
Se    7.61609000   19.03033000   15.53252000     -0.158987   -0.08227200   -0.10685800
Se   12.95248000    1.17930000    5.89628000      1.506400    0.13002300    0.58389200
Se   12.80991000    1.52430000   16.04688000      0.163386   -0.68869100    0.18233100
Se   13.22447000    7.25245000    6.35542000     -0.012878    0.73140900   -1.00989000
Se   13.31659000    7.30366000   15.86541000     -1.393933    0.97791100   -0.36124900
Se   12.90067000   12.95113000    5.54772000      0.554229   -0.11770600    0.57667900
Se   12.80461000   12.71223000   15.99036000      0.078846    0.75019700   -0.44861500
Se   13.54871000   19.14360000    6.19212000     -0.292302   -0.61345800    0.20909900
Se   12.76925000   18.66235000   15.67266000     -0.129994    0.55844600   -0.55995700
Se   18.40281000    1.10469000    5.97290000      1.478780    0.27215500    0.14475600
Se   18.74392000    1.24672000   15.45043000      0.166174    0.27408500    0.65798400
Se   18.75790000    6.94122000    6.21721000     -0.369155    0.43526300   -0.16386600
Se   18.80378000    7.11691000   15.95176000      0.444531   -0.40920500    0.14698100
Se   18.98395000   13.16055000    5.82928000     -0.407796    0.13247400    0.00284400
Se   19.26985000   12.91226000   15.93952000     -0.321769   -1.41599900    1.27059800
Se   18.91325000   19.11213000    6.21164000     -0.860596   -0.13102300   -0.28293900
Se   19.27109000   18.44742000   15.58715000     -0.258541    0.12702700    0.49128700
Se    4.10199000    4.42246000    5.94855000     -0.233272    0.73956000    0.62625600
Se    4.58999000    4.30798000   16.04207000     -0.606654    0.39830900    0.38048300
Se    4.38631000   10.31296000    5.78787000      0.260049   -1.44620000   -1.11315900
Se    4.34282000   10.25380000   16.01892000     -0.440924   -0.47954600   -0.24176100
Se    4.14589000   16.01145000    6.30647000     -0.149503   -0.66175300   -0.49749600
Se    4.44815000   16.07364000   15.47750000      1.499639    0.68158800    0.34228300
Se    4.26182000   21.79611000    6.13604000      0.905570   -0.55399200   -0.55671100
Se    4.50272000   21.77598000   15.90674000     -0.154635    0.24989600    0.02441800
Se   10.14038000    4.07663000    5.85609000      0.284291   -0.22960400   -0.33611500
Se   10.12078000    4.07553000   16.18368000     -0.448227   -0.45805700   -0.91567000
Se   10.11510000   10.28706000    6.11415000     -0.144692   -0.71458800   -0.77027000
Se   10.66932000   10.36678000   15.72502000     -1.203784   -0.07092300    0.28725600
Se    9.99763000   15.96919000    6.34818000      0.956592   -0.40681800   -0.27598200
Se   10.57866000   16.00638000   15.65589000     -1.226742   -0.23146700   -0.43098100
Se   10.54703000   22.11684000    6.54937000     -1.266919    0.21794900   -0.14524400
Se   10.34988000   22.01630000   15.28786000     -0.667311    0.84412300    0.83405400
Se   16.06153000    4.29798000    6.28640000      0.086260   -0.75074300   -0.37829700
Se   15.74062000    4.33158000   15.76091000      0.227899    0.02223500    0.53527500
Se   16.14009000    9.93384000    6.26913000     -0.751422    0.52323500   -0.36265700
Se   16.10417000   10.36775000   15.93922000     -0.744997   -0.25507200    0.33367300
Se   15.99657000   15.77792000    5.99189000      1.255126   -0.14540800    0.20538600
Se   15.75990000   15.90189000   15.60309000     -0.712209   -0.26284700    0.08656800
Se   16.31646000   21.77995000    6.13779000      0.723585    0.00737300   -0.16666800
Se   15.74326000   21.25129000   16.49691000     -0.248125    0.69170800   -0.48366000
Se   21.52855000    4.02593000    6.33101000      0.615984    0.46326500    0.19055300
Se   21.84695000    4.23125000   15.89102000     -0.352039   -0.08233400   -0.06781900
Se   21.55229000   10.01052000    6.01125000      0.551952   -0.75898600   -0.10040400
Se   21.90011000    9.44007000   16.34401000      0.299077    0.54055900    0.02854500
Se   21.87250000   16.06638000    6.20463000      0.053952    0.91558500    0.45553700
Se   22.28105000   16.03916000   15.90171000      0.909410   -1.70322300   -1.38311000
Se   21.79889000   21.63746000    6.03334000     -1.043095    0.13581900   -0.13391100
Se   21.92739000   21.73592000   16.16380000     -0.579791   -0.08726000   -0.10775100
Se    4.02097000    1.29964000    3.78849000     -0.002341   -0.26101400   -0.14570300
Se    4.62997000    1.67355000   13.53563000     -0.039450    0.30129200   -0.29663800
Se    4.26826000    7.02632000    3.68757000     -0.483405    1.24286800    0.09172800
Se    4.03989000    7.31515000   13.18726000      0.563571   -0.16473900    0.04392400
Se    4.31063000   13.14607000    3.95500000      1.155268    0.00186500   -1.18031700
Se    4.68242000   13.12099000   13.38861000     -0.297639   -0.17619800    0.38892700
Se    4.79599000   18.57650000    3.77552000     -0.966487    0.90049800    0.46316200
Se    4.30784000   19.42739000   13.44584000     -0.119828   -0.69367400   -0.59010000
Se   10.27858000    1.36997000    3.16586000     -0.237713    1.68298000    0.31466100
Se    9.85143000    1.39101000   13.48909000     -0.219156    1.45139500   -0.36408500
Se   10.10641000    7.30006000    3.47716000     -0.278031   -0.00849900    0.49614200
Se   10.27513000    7.10114000   13.23940000     -0.244397    1.01768800    0.43953200
Se   10.43213000   13.33698000    3.56970000     -0.846779    0.74094300    0.60219000
Se   10.19418000   13.01637000   12.97720000     -0.732323   -0.11284500    0.82451500
Se   10.61754000   19.12211000    4.13685000      0.248193   -0.16110900   -0.84804100
Se   10.14981000   19.28658000   12.72343000     -1.692570   -1.02636500    1.31057500
Se   15.79623000    1.57016000    3.69542000     -0.294517   -0.46519400    0.15123600
Se   15.83481000    1.79305000   13.49403000      0.122911   -1.18724900    0.20040200
Se   15.87627000    7.11395000    3.52907000      0.317781    0.61555100    0.03537200
Se   16.10231000    7.13305000   13.69678000     -0.976507    0.43986000    0.35529900
Se   16.09752000   13.01180000    3.70858000     -0.224227    0.48940800   -0.14406600
Se   15.53884000   12.61990000   13.50014000      0.424701   -0.23073800   -0.45262100
Se   16.44771000   18.64700000    3.52852000     -0.407229    0.39251700    0.66090000
Se   16.25518000   18.63566000   13.61513000     -0.189385    1.77176300    0.15425300
Se   21.26416000    1.43636000    3.61395000      1.336917   -0.79253300   -0.87065300
Se   21.84637000    1.33538000   13.50662000     -0.036335   -0.14625100    0.17345600
Se   21.57470000    7.02175000    3.64021000      0.515768   -0.37175900   -0.35756300
Se   21.59714000    7.25262000   13.26012000     -0.526793   -0.19256200    1.01125000
Se   21.61249000   13.30839000    3.69412000      1.020081   -0.66530800   -0.58185100
Se   21.86183000   12.95972000   13.55542000      0.452542   -0.15002900   -0.44415400
Se   21.31515000   18.95575000    3.06443000      0.763504   -0.64961200    0.03640400
Se   21.76565000   19.22975000   13.33747000      0.434135   -0.18258900    0.20845200
Se    1.30283000    4.37673000    3.34593000     -0.086160   -0.94085900    0.35512800
Se    1.77804000    4.41801000   13.19315000     -0.859045   -0.39242400   -0.05370900
Se    1.05039000   10.22385000    3.71780000     -0.258042   -0.01154300   -0.38044500
Se    1.07243000   10.09199000   13.99843000     -0.251366    0.27433400   -0.88836700
Se    1.48535000   16.00871000    3.58870000      0.239497    0.00186000    0.37286500
Se    1.60593000   15.83472000   13.13337000     -0.092813   -0.59549700    0.38744300
Se    1.46284000   21.66970000    3.71074000      0.429915   -0.43323200    0.03220700
Se    1.42562000   22.40464000   13.28205000      0.178723   -1.02637900    0.31798300
Se    6.99530000    4.09268000    3.54254000     -0.335160    1.13493600   -0.15089300
Se    7.10845000    4.97053000   13.72012000      0.050032   -1.27344800   -0.56770600
Se    6.98055000   10.13183000    3.58437000      1.229961    0.23978100    1.06194700
Se    7.29746000   10.17008000   13.94873000     -0.485967   -0.19696200   -0.51453500
Se    7.40380000   16.23037000    4.00265000     -1.235570   -0.42746600   -1.25422100
Se    7.33676000   16.26910000   13.32908000      0.258663   -0.93196400    0.05602000
Se    7.21025000   21.64691000    4.28460000      0.478609    0.92004800   -0.27824100
Se    6.87991000   22.11434000   13.08545000      0.728570   -0.36153200   -0.07305300
Se   12.98176000    4.61066000    4.10409000     -0.918513    0.33949700   -1.43943400
Se   12.91411000    4.34525000   13.15090000     -0.386971   -0.13849800    0.55337300
Se   13.04985000   10.18902000    3.77607000      0.180691    0.03689000    0.06749300
Se   13.02793000   10.20610000   13.34481000      0.140830   -0.28981700    0.21531700
Se   13.09206000   16.31460000    3.86876000     -0.069437   -0.17838500   -0.66693200
Se   12.95337000   15.70760000   13.06213000      0.730454    0.37974700    0.73218700
Se   13.55989000   21.78895000    3.71012000     -0.519790    0.12796700   -0.29895500
Se   13.35120000   21.76762000   13.46522000     -0.248777    0.62948200   -0.20856400
Se   18.60094000    4.49494000    4.12072000      0.224868   -0.84069300   -0.72613100
Se   19.08691000    4.29362000   13.10826000      0.230868   -0.02137300    0.61986200
Se   18.94845000   10.10831000    3.75511000     -0.125684   -0.22201600    0.17433900
Se   18.69469000   10.23797000   13.84587000      0.331349   -0.67423500   -0.16886900
Se   18.97575000   16.30729000    3.13281000     -0.219841   -1.29677100    0.54006900
Se   18.73486000   15.42244000   13.67417000     -0.176431   -0.03884600   -0.17976000
Se   18.99691000   21.89139000    3.26867000     -0.484002    0.07352500    0.38930900
Se   18.99877000   22.26940000   13.53808000     -0.030411   -1.59060600    0.19427900
