384
23.23808000 23.23808000 19.51320000
Ge    5.96388000    5.64474000    9.84962000     -1.757384    0.41841000    0.57902100
Ge    5.35983000    6.02854000   19.33631000      0.779906    1.26253700   -0.24388700
Ge    5.76627000   11.97835000    9.86900000      0.333395   -0.51423100   -0.57766100
Ge    5.75007000   11.54280000    0.07089000     -1.155821   -0.40723400    0.00398900
Ge    6.13015000   17.64967000    9.87522000     -0.444156   -0.76479700    0.19458100
Ge    5.46840000   17.32326000    0.03772000     -0.003797   -0.79547900    0.31514300
Ge    5.87856000   22.95600000   10.12048000     -0.230557   -0.15970100    0.15073000
Ge    5.48338000    0.41795000   19.50427000      0.432552   -0.40125300   -0.07522700
Ge   11.38146000    6.09332000    9.97720000     -0.170657    0.10302900   -0.72340100
Ge   11.55011000    5.90039000   19.47005000      0.547187   -0.12587800    0.17630900
Ge   11.54052000   12.24613000    9.92761000      0.346293   -0.06785900    0.48365200
Ge   11.89256000   11.67861000   19.10069000     -1.133439   -0.67609400    0.28180500
Ge   11.30377000   17.66701000    9.89117000      0.390028   -0.50015500    0.70409500
Ge   12.01459000   17.53310000    0.07320000      0.357048   -0.88278700    0.05351100
Ge   11.56159000   22.93895000    9.72162000     -0.259241    0.61433200    0.37334200
Ge   12.01329000    0.17726000   19.40894000     -0.530831   -0.11071500    1.28385600
Ge   17.26542000    5.45504000    9.61917000     -0.011242   -0.00848900   -0.34690700
Ge   17.45414000    5.56483000   19.39944000      1.608026   -0.57510600    1.06557800
Ge   17.60077000   11.34179000    9.74639000     -1.413696    0.38798300    0.17494400
Ge   17.24000000   11.41887000   19.39161000     -0.738644    0.17833000   -1.10820200
Ge   17.34803000   17.23769000    9.50597000      0.755577    1.00450700   -0.37790200
Ge   17.60061000   17.31441000    0.52404000     -0.227812    0.52315500   -1.11337700
Ge   17.42228000    0.19199000    9.51616000      0.863974   -0.07349300    0.29682700
Ge   18.19883000   23.20127000   19.47489000     -1.377943    0.82492500    0.47850600
Ge   22.87638000    5.77057000    9.75927000     -0.109030   -0.15609000    0.20969500
Ge   23.13594000    5.92744000    0.02551000     -0.661607   -0.41254600   -1.35830700
Ge    0.33312000   11.73651000    9.64192000     -1.687576   -1.18834300    0.19157700
Ge   23.08826000   11.42475000   19.39332000     -1.266731    0.93661700    0.26362000
Ge    0.48793000   17.65863000    9.55475000      1.354823   -0.40822400    0.37882500
Ge    0.05364000   17.59355000    0.02858000      0.067731   -1.14073000    0.64293600
Ge   23.17207000   23.14488000    9.65129000      0.575602   -0.95223500    0.53308600
Ge    0.21989000    0.03652000    0.39411000     -0.824539   -0.02613000   -1.36463600
Ge    2.64678000    5.67724000    7.57114000      0.504128    1.05273200   -0.10865800
Ge    2.41417000    6.06859000   16.82095000      1.351545   -1.28042800    0.62290200
Ge    3.18893000   11.64682000    7.37650000      0.327461   -0.69743700    0.80418600
Ge    2.69845000   11.73828000   16.90434000     -0.069762   -0.28726900    0.37913800
Ge    3.56042000   17.50048000    7.24776000     -0.198339    0.16390300   -0.69420200
Ge    2.82978000   17.21429000   16.94252000     -1.634755    0.14371200    0.55019700
Ge    3.29572000   23.17717000    7.54544000     -0.592536    1.44044100    1.04234700
Ge    2.69510000    0.05522000   17.05333000      0.445004    0.17026700    0.83908000
Ge    8.83874000    5.94408000    7.37606000     -1.486353   -0.92396300   -0.91731400
Ge    8.57043000    5.95775000   16.85546000      2.118097   -0.28332000    1.63791900
Ge    8.89009000   11.93457000    7.23326000     -0.284578   -0.57484000    1.34292800
Ge    8.54778000   11.61197000   16.96713000      1.623533   -0.84886000    0.91989800
Ge    8.68237000   17.09654000    7.06945000      0.757692   -0.04906300    0.34770400
Ge    8.39329000   17.32623000   17.76327000      0.408542   -1.70639900   -0.84923900
Ge    8.58533000    0.02038000    7.32374000      0.395556    0.58818900   -0.09683100
Ge    8.93065000    0.18350000   17.37991000     -0.424032    0.21210000    0.22258000
Ge   14.23293000    5.98995000    7.17812000     -1.405626    0.59830400    0.58679700
Ge   14.83996000    5.60553000   16.97104000     -0.317594    0.76162900    0.81296900
Ge   14.55606000   11.71140000    7.33658000     -0.154694   -0.53029400    0.71079500
Ge   14.36744000   11.41425000   16.59593000      0.583273   -0.12214000    0.90021800
Ge   14.42265000   17.28630000    7.39999000     -0.455543    0.85809000   -1.47402300
Ge   14.82044000   17.52936000   17.33667000      1.358574   -0.61847700    0.39486300
Ge   14.68449000   23.00754000    7.06056000      0.006532    0.21425500    0.79924700
Ge   14.92378000   23.23003000   17.34583000      0.331102   -0.44869000   -0.95389500
Ge   20.16359000    5.80839000    7.17856000     -0.427055    1.02624600   -0.05720700
Ge   20.48965000    5.92567000   16.86964000      0.464869   -0.06677700   -0.09523200
Ge   20.52127000   11.48589000    7.43300000      0.834069   -2.18414100    0.92716300
Ge   20.11310000   11.59801000   16.79086000     -0.424176    0.60282700   -0.58755400
Ge   20.62925000   17.64399000    7.09676000      0.352431   -0.13016200   -0.64182900
Ge   20.49574000   17.75178000   17.21523000     -0.102114   -0.38076900    1.40471500
Ge   20.62462000    0.10535000    7.29901000     -0.567026   -0.88577700   -0.51339500
Ge   20.63156000   23.05523000   17.10561000     -0.384219   -0.41843200   -0.53150100
Ge    3.18051000    2.90041000    4.98598000     -0.534078   -0.06255800   -0.15464500
Ge    2.69204000    2.78137000   14.58972000     -0.232925   -0.30154300    0.09720400
Ge    3.05258000    8.74109000    4.96607000     -1.499566    1.19189100    0.52974300
Ge    2.77143000    8.82604000   14.36028000     -0.048302    1.58282300    0.97109000
Ge    3.07967000   14.35830000    5.10401000     -0.097888    0.11142500   -0.67835600
Ge    2.60013000   14.64708000   14.37809000     -1.180528   -1.26269200   -0.95994800
Ge    2.93351000   20.55669000    5.20220000      0.867817   -0.01610300   -1.02350600
Ge    3.14155000   20.06440000   14.74900000     -1.102722    0.87450100   -0.32783700
Ge    8.61545000    2.84219000    4.75232000     -0.182754   -1.07729800    0.20802400
Ge    8.75266000    2.95922000   14.64714000     -1.860071    1.45115700    1.43960200
Ge    8.80228000    9.00417000    4.75765000     -1.039607   -0.27699300    0.63331900
Ge    8.71839000    8.90905000   14.52458000      0.441618    0.37102100   -0.45180500
Ge    9.06419000   14.42089000    4.46813000     -0.297219   -0.09381400    0.71629700
Ge    8.57571000   14.46622000   14.74216000      0.286773    0.93726200    0.70383600
Ge    8.71398000   20.22501000    4.83671000     -0.077249   -0.40170600   -0.80657300
Ge    8.98160000   20.17553000   15.36336000      0.804900   -0.42432900   -0.91339100
Ge   14.39643000    2.76062000    4.84114000     -0.278579    0.50032500   -0.03152700
Ge   14.70552000    2.70427000   14.72423000     -0.661725   -0.83233500   -0.95229700
Ge   14.25995000    8.80007000    4.90874000     -0.591498    0.72456800    0.33926500
Ge   14.72782000    8.58677000   14.46297000     -0.332068   -1.17366300   -1.04489700
Ge   14.31326000   14.31150000    4.84465000      1.397423    0.87753500    0.10020700
Ge   14.69502000   14.75745000   14.75212000      0.738818    0.27469800   -0.34044500
Ge   14.30963000   20.09982000    4.75636000      0.376828    0.21841700   -0.09274700
Ge   14.56484000   20.42855000   14.88866000     -0.032057    0.48419800   -0.30431200
Ge   20.15169000    3.05887000    4.83411000      1.422819   -0.75339500    0.42856300
Ge   20.11369000    2.74969000   14.77330000      0.319242    1.66446300   -0.40617300
Ge   20.33258000    8.82549000    4.75668000     -0.245862   -0.99598400   -0.05252400
Ge   20.27790000    8.51415000   14.37649000     -0.266320    0.12624500   -0.11782000
Ge   20.14063000   14.39318000    4.90982000      0.506499   -0.16761800   -0.28016200
Ge   19.99633000   14.95364000   14.93786000     -0.263759   -0.49872300   -1.06434400
Ge   20.49449000   20.76297000    4.85323000      1.194487   -1.31182800    1.18919700
Ge   20.33993000   19.89684000   14.52865000      0.971281    1.55642300   -0.65862400
Ge    5.68810000    3.12025000    2.46455000      0.638027   -0.48603200   -0.04431400
Ge    5.80882000    2.64389000   12.33929000     -0.441699    0.80603300    0.30228800
Ge    5.76463000    8.88656000    2.49665000     -0.585643    0.54055700   -0.07344800
Ge    5.64993000    8.56024000   12.30716000      0.230980    0.44671100   -0.51079200
Ge    5.89305000   14.48374000    2.37975000     -0.184306   -0.83311100    1.05954800
Ge    6.01663000   14.85740000   12.27669000     -1.468661    0.53339900    0.07815200
Ge    5.61407000   20.45992000    2.35374000      1.641407   -0.24595200    0.69032600
Ge    6.21183000   20.10249000   12.61888000     -0.394579   -0.49747900    0.09903900
Ge   11.71902000    2.89207000    2.36074000     -0.583522    0.02066700    0.98918000
Ge   11.51604000    3.09795000   12.30495000      0.662446    0.31133300   -1.01115500
Ge   11.62912000    8.98549000    2.36848000     -0.523067   -1.86302100   -0.28738800
Ge   11.60847000    9.00012000   12.39641000     -0.486750    0.63708700    0.07941900
Ge   11.71717000   14.20354000    2.16600000      0.913101    1.29116800   -0.27971100
Ge   11.69754000   15.08469000   12.52103000     -0.326630    0.42783000   -0.55114800
Ge   11.60472000   20.33191000    2.14674000     -0.221032    0.74324400    0.31546500
Ge   11.54537000   20.38839000   12.65964000     -0.820424   -0.61325900   -1.51088300
Ge   17.18216000    2.71391000    2.53996000      0.381228   -0.84219800   -0.06639700
Ge   17.24856000    2.57659000   12.06540000      0.669281    0.95901400    0.62868900
Ge   17.17449000    8.59735000    2.58142000      0.208631    0.39189400   -0.85680700
Ge   17.34137000    8.56805000   11.95661000     -0.052800   -0.96748100    0.27572500
Ge   17.16454000   14.23929000    2.35603000     -0.626188   -0.31535700   -0.39688700
Ge   17.20620000   14.47532000   12.01299000     -0.065858    0.21494500    0.20931200
Ge   17.70606000   20.32182000    2.60234000     -0.496550    0.01940300   -0.12493600
Ge   17.21344000   20.40723000   12.05433000      0.274866   -0.79303700   -0.22243100
Ge   23.23003000    2.98504000    2.39730000      1.094380    0.64368900    0.84504500
Ge   23.22774000    2.57156000   12.24644000     -1.034980    1.36565900    0.36461900
Ge   22.99992000    8.73871000    2.34543000     -0.031941   -0.36300200    1.17408800
Ge   23.16355000    8.58777000   12.11471000     -0.096289    1.81413200    0.03168200
Ge   23.19111000   14.11511000    2.43704000      0.701619    1.54316800   -0.26541900
Ge   23.00674000   14.64698000   12.06897000      0.033760    0.13050000   -0.32847000
Ge    0.35901000   20.39793000    2.71880000     -0.801433   -0.78779400   -0.32571000
Ge    0.07357000   20.27568000   12.16334000      0.211297    0.22986300   -0.53125000
Se    1.63642000    1.62382000    1.30172000      0.292328    0.37392000    0.04131300
Se    1.39670000    1.28803000   10.92535000      0.562293   -0.31606600    0.13950800
Se    1.27517000    7.46494000    1.04089000      0.838550    0.27748700    0.39839600
Se    1.28462000    7.07593000   11.02636000      0.383704   -0.77188900   -0.94436200
Se    1.42241000   12.81944000    1.03853000     -0.200610    0.32637000    0.30391400
Se    1.50252000   13.24643000   10.87095000      0.059701    1.16982300    1.02870100
Se    1.69509000   18.66576000    1.39084000     -0.393681    0.80546300    0.40048200
Se    1.85873000   19.20405000   10.92002000     -0.973018   -0.66921600   -0.28843500
Se    7.10364000    2.00508000    0.93343000     -0.308973   -0.71645600    0.03093700
Se    7.26496000    0.87406000   11.71680000      0.544875   -0.00007800   -0.36785000
Se    6.95609000    7.55514000    0.96324000      0.163685   -0.50167700   -0.18496700
Se    7.28131000    7.12649000   11.31259000     -0.027340   -0.27352600   -0.39426200
Se    7.29966000   12.87382000    1.28001000     -0.400110    0.13116700   -0.26656000
Se    7.31009000   13.29075000   11.17703000      0.607887   -0.54941300   -0.23915900
Se    6.95346000   18.77826000    1.10786000      0.369778    0.52848400    0.40912900
Se    7.76132000   18.70407000   11.21053000     -0.495319    0.82260200    0.61814200
Se   13.35963000    1.35021000    1.62317000     -0.478791   -0.38176300   -1.22694500
Se   12.82843000    1.44896000   11.05212000     -0.163756   -0.15777400   -0.16609500
Se   13.03796000    7.17768000    1.42188000     -0.120832    0.03065100   -0.27516200
Se   12.84931000    7.49854000   11.14538000      1.253993   -0.46842200   -0.45197600
Se   13.29600000   12.80852000    1.10137000      0.253622    0.27221700   -0.20735300
Se   13.07758000   13.66719000   11.25796000     -0.107334   -0.77810300   -0.62464500
Se   13.39834000   19.33425000    0.97279000     -0.356206   -1.05774400   -0.12392100
Se   12.85914000   19.17257000   10.94642000     -0.212288   -0.22933200    0.34101000
Se   19.03663000    1.55611000    1.54587000      0.429103    0.08868500   -0.33251200
Se   18.89566000    1.36549000   11.01094000      0.222182   -0.29103800   -0.62928800
Se   18.61734000    7.19860000    1.30011000      0.550634   -0.37240300    0.05304400
Se   18.74336000    7.02292000   10.68027000      0.026003   -0.02121000    0.13229200
Se   18.59537000   13.06860000    0.72698000      0.448985    0.93196600    1.07251100
Se   18.76059000   12.89832000   11.13915000      0.452834    0.02367700   -0.14249000
Se   19.20929000   18.63491000    1.82450000     -0.222435   -0.13117400   -0.37986600
Se   18.66337000   18.93990000   10.65416000     -0.154520   -0.12188600    0.39960100
Se    4.28530000    4.65691000    1.36656000     -1.449599   -0.02134000    0.13303400
Se    4.31686000    4.01248000   10.98977000      1.136159    0.56514100   -0.08711900
Se    4.03344000   10.18855000    1.35037000      1.184495    0.42146700   -0.08813300
Se    4.46603000   10.06710000   10.78943000      0.081237    0.32071800    0.01494900
Se    4.19936000   15.87868000    1.45952000     -0.645122   -0.13664200    0.18855800
Se    4.46520000   16.19569000   10.94424000      1.019903    0.05786000    0.14115600
Se    4.10638000   21.66620000    1.15387000     -0.120195    1.64817000   -1.06263000
Se    4.46014000   21.33242000   11.43101000      0.971224    0.35129000   -0.37745000
Se   10.12352000    4.38687000    1.26830000      0.387334   -0.13507600   -0.24507600
Se    9.91100000    4.56877000   11.12017000      0.497325   -0.32852000    0.18492100
Se   10.35777000   10.06008000    0.72840000     -0.053820    0.68078100    0.09634900
Se   10.26209000   10.61839000   11.22921000     -0.441050   -0.03502900   -0.09809000
Se   10.46039000   15.85275000    1.00037000      0.062147    0.14237100    0.20977700
Se    9.91852000   16.13531000   11.23803000      1.094829    0.40266900   -0.23901500
Se   10.32869000   22.00275000    1.00317000      0.242647    0.20821900   -0.21707700
Se    9.93131000   21.48954000   11.00678000      0.919497    0.43900900    0.12495300
Se   15.97668000    4.18328000    1.19837000     -0.724708    0.35704400   -0.46294500
Se   15.75193000    4.04982000   10.99721000      0.035840    0.45669100   -0.64687100
Se   15.82782000    9.87689000    0.92038000     -0.077369   -0.24008200    0.90394200
Se   15.86179000    9.89294000   10.71390000      0.166347    0.65240500   -0.18943800
Se   15.73505000   16.03861000    1.53180000      0.815506    0.02127300   -0.36286200
Se   15.76705000   15.86163000   10.52749000      0.114072   -0.55059700    0.66951000
Se   16.56547000   21.84879000    1.05931000     -0.490883   -0.41846200    0.46702300
Se   16.01169000   21.88708000   10.58501000     -0.731071   -0.24207900    0.47371500
Se   21.73109000    4.27570000    1.09559000     -0.194802    0.25954700    0.06530900
Se   21.63954000    4.08436000   11.01432000      0.065863   -0.01526000    0.09171800
Se   21.46708000   10.31009000    1.38435000      0.589260   -0.06483300   -0.70099900
Se   21.91038000   10.30486000   10.97569000      0.265984    0.22135300   -0.51108700
Se   21.91314000   15.93214000    1.27700000      0.100376   -0.10957100    0.05477700
Se   22.03220000   16.33532000   10.48547000     -0.396935   -0.74818700    0.42579000
Se   22.05429000   22.03444000    1.76148000     -0.035661   -0.69976300    0.05963100
Se   21.68769000   21.61143000   10.92012000      0.792998    0.29645600   -0.27912800
Se    0.82669000    4.26112000    8.28412000      0.713861    0.14783300    0.12180400
Se    1.20660000    4.38732000   18.19045000      0.253520    0.91347500   -0.30137500
Se    1.84805000   10.13079000    8.82490000      0.082110    0.50182100   -0.59564700
Se    1.21620000   10.12053000   18.10269000      0.839387   -0.37104900   -0.74447300
Se    2.01038000   16.16030000    8.33614000     -0.652529   -0.85575600    0.60694100
Se    1.48705000   15.89526000   18.49049000     -0.258347    0.70874600   -0.28963000
Se    1.87659000   21.70273000    8.76258000     -0.883792    0.57328500    0.15433500
Se    1.27320000   21.77431000   18.36136000      0.358306    0.52454200    0.27323900
Se    7.09407000    4.20327000    8.40395000      1.005521    1.02640800   -0.21885200
Se    6.93902000    4.80466000   18.06054000     -0.309323   -1.26443400    0.19709800
Se    7.35588000   10.58875000    8.55866000     -0.360152    0.05283900    0.05350000
Se    7.43746000   10.13045000   18.57941000     -0.039029    0.05890000   -0.67080800
Se    7.37527000   15.92228000    8.75753000      0.003764   -0.15670500   -0.62867500
Se    6.83427000   15.61910000   18.59533000      0.732679    0.81225100   -0.25352400
Se    7.24958000   21.66258000    8.55871000      0.196250    0.22507400    0.19561000
Se    7.20726000   22.17096000   18.50157000     -0.265128   -0.09331400    0.26443400
Se   12.88699000    4.66963000    8.67773000     -0.225164   -0.19690200    0.16247200
Se   13.12751000    4.41282000   18.13347000     -0.532193   -0.07624200    0.46045900
Se   12.88556000   10.55017000    8.92212000      0.512947    0.48586100   -0.76955700
Se   13.22567000    9.95729000   18.16669000     -0.216179   -0.04163700   -0.82810200
Se   12.91375000   16.24359000    8.76756000     -0.540154   -1.22174700    0.54743900
Se   13.13050000   15.95516000   18.17133000      0.469581    0.44659700    0.12128600
Se   13.35625000   21.63747000    8.66043000     -0.153508    0.25039900   -0.16630500
Se   13.36700000   21.78938000   18.38338000      0.247433   -0.14587300   -0.06667700
Se   18.79334000    4.17198000    8.17773000     -0.490824   -0.09625000    0.69424100
Se   19.19296000    4.39705000   18.07246000     -0.766031   -0.51275500    0.89823600
Se   18.97366000    9.84290000    8.66691000      0.964747    0.39975900   -0.61924700
Se   18.71753000   10.16996000   18.00693000     -0.092591   -0.88430400    0.26628000
Se   19.07534000   16.17558000    8.05365000     -0.635695   -0.71683400    0.84665100
Se   19.26380000   16.11881000   18.51954000     -0.712552    0.52862300    0.57508000
Se   19.00013000   21.93702000    8.60102000      0.852641   -0.14515000   -0.65595400
Se   19.38168000   21.48619000   18.51695000      0.515422    0.07633600   -0.68501500
Se    4.57736000    1.47349000    9.12531000     -0.463649   -0.79863300   -0.69293000
Se    4.16510000    1.88870000   18.08828000     -0.408249   -1.35007300   -0.01929300
Se    3.97049000    7.17302000    9.20893000      0.647023   -1.40780600   -0.84552300
Se    3.89279000    7.56374000   18.16622000     -0.131106   -0.77137400   -0.17279000
Se    4.42766000   13.45910000    8.40238000      0.175783   -0.78521900    0.56212900
Se    4.18903000   13.06156000   18.35038000      0.271211   -0.41194400   -0.12838400
Se    4.62276000   19.02478000    8.69220000      0.318515    0.70633600   -0.03359400
Se    4.34158000   18.63015000   17.98332000      0.105554    1.09085100    0.23812200
Se   10.47605000    1.38737000    8.29277000     -0.791944   -0.93624700    0.13479300
Se   10.60694000    1.69941000   18.19729000      0.017533   -0.06376500    0.12326000
Se    9.96004000    7.57711000    8.59376000      0.507360   -0.38879400    0.64123300
Se   10.07506000    7.40658000   18.40385000     -0.519406   -0.56200700   -0.68040300
Se    9.75958000   13.47264000    8.83381000      0.791575    0.29428700   -0.14914400
Se   10.30825000   13.10745000   17.89172000      0.064455   -0.10045800    0.14464100
Se    9.98533000   18.71689000    8.34498000     -0.710960    0.90732900   -0.84258900
Se   10.14999000   18.62537000   18.68634000     -0.433124    1.31116300   -0.16783300
Se   16.15168000    1.49251000    8.04179000     -0.539164   -0.08870200   -0.02100400
Se   16.55183000    1.43755000   18.20266000      0.343326   -0.09747300    0.76108400
Se   16.11226000    7.02420000    8.15271000      0.115586    0.43266600    0.57077700
Se   16.16152000    7.11328000   18.41906000     -1.142410    0.25458800   -1.25497700
Se   16.33384000   12.93841000    8.41907000     -0.423308   -0.01110600   -0.05365800
Se   15.59469000   12.78152000   18.18704000      0.643125   -0.01434100   -0.20423000
Se   16.03475000   18.76034000    8.18729000      0.297730    0.52187700    0.36142400
Se   16.11805000   19.14296000   18.67044000      0.294053   -1.40841500    0.13515300
Se   22.03410000    1.56870000    8.45735000     -0.061082    0.36230700    0.07494600
Se   21.71265000    1.33890000   18.55500000      0.437394    0.18835100    0.10791200
Se   21.53067000    7.29517000    8.46486000      0.296627   -0.05872100    0.39866200
Se   21.83827000    7.47176000   18.06788000      0.280939   -0.56867100    0.62328500
Se   21.94302000   13.04135000    8.38293000      0.461782    0.24407700    0.39028900
Se   21.57609000   12.97175000   18.02625000      0.649559   -0.09343400    0.72139500
Se   22.43525000   18.91755000    8.10392000     -1.129791    0.88591400   -0.40617300
Se   22.10694000   19.23425000   18.30725000     -0.354733   -0.23736200   -0.24105000
Se    1.81915000    1.31653000    6.18279000     -0.184157    0.20926200    0.18838500
Se    1.18556000    1.10274000   15.65417000     -0.136020    0.85804800   -0.41581700
Se    1.49661000    7.55091000    6.34985000      0.080303   -0.58559400    0.00281900
Se    1.19153000    7.50377000   15.47803000     -1.091680    0.11197300    0.15548800
Se    1.65129000   12.69515000    6.04132000     -0.869883    0.58966800   -0.01401600
Se    1.10802000   13.18780000   15.80800000      0.592705    0.12103100   -0.54855800
Se    1.81301000   19.02976000    6.48420000     -0.125184   -0.81928100   -0.05895300
Se    1.43624000   18.58759000   15.53481000     -0.109206    0.13048400    0.34032500
Se    7.05446000    1.40383000    6.00393000      0.490669   -0.13211500    0.24920000
Se    7.43776000    1.50832000   16.14574000     -0.254706    0.36485700   -0.74637300
Se    7.34957000    7.38700000    6.04161000      0.446111    0.03673900    0.13991700
Se    7.36149000    7.40156000   15.66524000     -1.760747    0.58934200   -0.55444400
Se    7.52860000   13.00209000    5.75529000     -0.616538    1.22437500   -0.69763500
Se    7.03042000   12.83390000   15.74720000     -0.303820    0.77621700   -0.68817600
Se    7.25267000   18.48141000    5.82208000     -0.243263    0.81140300   -0.32983700
Se    7.31225000   18.81466000   16.26668000     -0.553518    0.09101800    0.53174600
Se   13.08434000    1.25550000    6.11248000     -0.546299    0.05325800    0.00799600
Se   13.33875000    1.30441000   16.03554000      0.146325   -0.00084700    0.25679600
Se   12.64958000    7.75883000    6.35378000      0.705415   -0.67425200   -0.11358000
Se   13.51070000    7.34159000   16.08763000     -1.001980    0.19995400   -0.48317500
Se   12.88160000   12.99192000    6.11673000      0.102966   -0.43928200    0.58918300
Se   13.14020000   13.39285000   15.89511000     -0.485145   -0.30559900    0.12025400
Se   12.86484000   18.70851000    5.92300000      0.295296   -0.64942900    0.61968800
Se   13.33341000   18.63391000   16.00000000     -1.112006    1.46531100   -0.46809900
Se   19.00623000    1.44664000    6.11119000     -0.041450   -0.44244900    0.13280800
Se   18.84260000    1.10191000   15.75837000      0.315993   -0.83170200    0.94225600
Se   18.75710000    7.51532000    6.01276000      0.123858   -0.57698500    0.05437300
Se   18.82928000    7.31943000   15.90381000      0.110002    0.04618100   -0.66406400
Se   19.04399000   12.60880000    6.25917000     -1.830759    1.69483100   -1.64266000
Se   18.43303000   13.32197000   15.83252000      1.276306   -0.35462200    0.22881700
Se   19.12918000   19.18777000    6.04947000      0.131997   -0.08062700    0.40040700
Se   18.89145000   18.79440000   15.91195000     -0.826620   -0.32368800    0.36363300
Se    4.39627000    4.53852000    6.21988000     -0.238527   -0.00867000    0.34633700
Se    3.96898000    4.55626000   15.46024000      0.148734    0.57450600    1.15084300
Se    4.59890000   10.11145000    6.21725000      0.171172   -0.01137500   -0.03016700
Se    4.23688000   10.20404000   15.80939000     -0.397200    0.10392600   -0.22193600
Se    4.74053000   16.03602000    5.71670000     -0.279122    0.18673000    0.46660600
Se    4.02907000   15.69464000   15.74084000      2.275690    0.06258400    0.55087200
Se    4.61765000   21.79687000    6.30942000      1.306856   -0.51196500   -0.67656500
Se    4.12578000   21.50088000   16.40528000      0.721796   -0.05774300   -0.42076100
Se    9.98574000    4.14879000    6.08594000      1.061545    0.79275700    0.82643400
Se   10.15033000    4.32394000   16.11558000     -0.404901    0.21755000   -0.45876100
Se   10.26734000   10.39558000    6.14300000      0.685103   -0.65166700   -0.27866200
Se   10.26235000   10.26022000   15.75564000     -0.943060    0.14063900    0.07849000
Se   10.36315000   16.13024000    5.55900000     -0.235476   -0.21136100    0.58937000
Se    9.88048000   15.89781000   16.34637000     -0.412607   -0.19916300   -0.35871800
Se   10.08829000   21.80162000    6.01725000     -0.128053   -0.09501200    0.28713600
Se   10.34798000   21.96217000   16.20853000      0.374443   -0.57029300   -0.11363700
Se   15.53769000    4.64157000    5.82896000      1.016881   -0.76948100    0.01587000
Se   16.12847000    4.34139000   15.47032000      1.322776    0.39953800    0.46584700
Se   15.87922000    9.96061000    6.23381000     -0.297643    0.46986600    0.08787500
Se   16.10411000   10.07689000   15.55846000      0.831844    0.92390500    0.38315400
Se   15.86394000   15.85188000    6.16410000     -0.643743   -0.68298400   -0.44571500
Se   16.30520000   16.37839000   15.69586000     -0.447493   -0.49688300    0.44500800
Se   15.99841000   21.41711000    5.86141000     -0.327054    0.25660700    0.32696500
Se   16.38135000   21.71838000   15.99868000     -1.317992    0.07387200    0.11482900
Se   21.69151000    4.38852000    6.11804000      0.083085   -0.22214300   -0.60091300
Se   21.86931000    4.18643000   15.80365000     -1.214177    0.22727700   -0.00643100
Se   21.85394000    9.83460000    6.22289000      0.444304    0.59010000    0.09297300
Se   21.61746000   10.18286000   15.49744000     -0.029730    0.16456500    0.07456100
Se   21.83452000   15.94278000    5.63056000     -0.620472    0.31925200    0.68169100
Se   21.74428000   16.02884000   16.26767000      0.342204   -0.50506100   -0.84728200
Se   22.23786000   22.02031000    5.83861000     -1.054911    0.65112400    1.10703600
Se   21.93752000   21.45642000   15.73600000     -0.375966   -0.15075900   -0.15842600
Se    4.50654000    1.39807000    3.68821000      0.273526    0.47456500   -0.21717500
Se    4.27057000    1.31261000   13.61964000      0.151279   -0.30679300    0.03317800
Se    4.48493000    7.37374000    3.87690000      0.839763   -1.07122800   -0.73759800
Se    3.71757000    7.29571000   12.98274000      1.236833   -0.94195100   -0.56355600
Se    4.66291000   12.81809000    4.20165000      0.394160    1.14198300   -1.38115500
Se    4.37967000   13.35420000   13.19560000     -0.596465   -0.18910800    0.39770700
Se    4.04029000   19.11154000    3.45778000     -0.225481   -0.04833900    0.97203300
Se    4.61802000   18.50468000   13.86526000      0.879209    0.48196400   -0.72255800
Se   10.33415000    1.24884000    4.05660000      0.074628    1.58784700   -1.03289700
Se   10.31155000    1.67633000   13.67014000      0.376295   -1.87051600   -0.44404100
Se    9.85450000    7.37459000    3.47460000      1.081409    0.84539700   -0.47435800
Se   10.02336000    7.36451000   13.17963000      0.007699    0.92891400    0.38176500
Se   10.73392000   12.88054000    3.74458000     -0.985623   -0.83866600    0.26237500
Se   10.23099000   13.45708000   13.32194000     -0.600895   -0.96064100    0.77703000
Se    9.96301000   18.90627000    3.05849000     -0.315891    0.01442000    0.80537100
Se   10.44165000   18.62088000   13.87010000     -0.530525    1.13321800    0.57635100
Se   15.79700000    1.19630000    3.80719000      0.795673   -0.09715000   -0.38853800
Se   16.12539000    1.12032000   13.48259000     -0.759508    0.01989800    0.47417500
Se   15.59287000    7.23251000    3.75912000      0.411475   -0.14187500   -0.21613900
Se   15.87292000    6.84895000   12.97776000      0.013348    1.77587900    0.63687600
Se   15.67362000   12.77263000    3.55559000      0.244741   -0.25502100    0.14422200
Se   15.80626000   13.06813000   13.39869000      0.037211    0.61923200   -0.09429600
Se   16.02624000   18.87133000    3.60867000      0.206381   -0.07021000   -0.15293700
Se   15.53587000   19.02812000   13.20055000      0.371580    0.20541800   -0.37287000
Se   21.84480000    1.64338000    3.74432000     -0.297000   -0.03317000    0.11299500
Se   21.70297000    1.37380000   13.81076000      1.024026   -0.83859600   -1.22503300
Se   21.54469000    7.09194000    3.56904000      0.564635    1.16333900   -0.17845800
Se   21.78389000    7.01128000   13.11739000     -0.958365    0.17912900    0.72355400
Se   21.57864000   12.87283000    3.52886000     -0.926563   -0.23673600    0.57349000
Se   21.28524000   13.45870000   13.42249000      0.513708    0.18259200   -0.13428100
Se   21.57281000   19.10233000    3.62050000      1.487803   -0.14259400   -0.50428300
Se   21.59114000   18.71037000   12.82180000     -0.086234   -0.28912400    0.47658200
Se    1.86183000    4.34567000    3.59321000     -0.890708   -0.30293200   -0.10343200
Se    1.43842000    4.23836000   13.25444000     -0.599159   -0.37309600   -0.37064900
Se    1.42726000   10.16287000    3.56591000      0.071872   -0.73240200    0.18112200
Se    1.33809000   10.30097000   13.18728000     -0.319642   -0.57174500    0.01853700
Se    1.29622000   15.56378000    3.98987000      0.186820   -0.14471400   -0.54963500
Se    1.21827000   16.22776000   13.13897000      0.149029   -0.61424400    0.33824300
Se    1.36865000   22.02341000    4.20341000      0.455612   -0.06148700   -0.66660100
Se    1.77751000   21.60642000   13.20662000      0.137612   -0.21410100    0.82008000
Se    7.23559000    4.44888000    3.69528000     -0.090636    0.27216400   -0.05757300
Se    7.01624000    4.42724000   13.51768000      0.651065   -1.22186100    0.18484700
Se    7.24845000   10.49635000    3.59324000      0.059309   -0.67858500    0.04929300
Se    6.72207000   10.18466000   13.73012000      0.656303   -0.45510500   -0.14030200
Se    7.76969000   15.82067000    3.08985000     -0.351117    0.32715800   -0.07645700
Se    7.23903000   16.23150000   13.74717000      0.306762   -0.33691200    0.21909200
Se    7.25645000   21.80186000    3.74346000     -0.636400   -0.58414200   -0.55324800
Se    7.39914000   21.51977000   14.20583000     -0.298087    0.25643400   -0.73865500
Se   13.38363000    4.35452000    3.38146000     -0.898955   -0.31518900    0.15760600
Se   13.24215000    4.25516000   13.54724000     -0.116376    0.07858000   -0.19137100
Se   12.93940000   10.46629000    3.57897000      0.794169   -0.43651200    0.54252400
Se   13.28670000   10.32495000   13.51999000     -0.145475   -0.80843400    0.06084700
Se   13.24298000   15.78116000    3.34775000     -0.653318    0.08316800   -0.08859000
Se   13.25739000   16.40075000   13.69836000     -0.036464   -0.11749900    0.04300400
Se   12.97283000   21.67826000    3.59502000     -0.029682    0.15730800    0.03125300
Se   12.85652000   22.00275000   13.65482000      0.986114   -0.06857400    0.78253300
Se   18.42416000    4.20182000    3.88689000     -0.396107    1.40248400   -0.35267800
Se   18.70943000    4.09854000   13.30463000      0.144988    0.08183100    0.37952500
Se   18.94744000   10.15988000    3.31037000     -0.562172   -0.03597400    0.19125000
Se   18.83948000   10.06166000   13.14115000      0.094392   -0.66908000    0.01558500
Se   18.37966000   15.64173000    3.75451000      0.791266    0.16130100    0.58255800
Se   18.51317000   16.14870000   13.22804000      0.316844   -0.07595000    0.29933700
Se   18.83974000   21.93925000    3.95435000     -1.350808    1.63854800   -1.02152500
Se   18.51602000   21.35049000   13.83361000      0.406405    0.47258400   -0.63635100
