384
23.23808000 23.23808000 19.51320000
Ge    5.74816000    6.09541000    9.68975000      0.065714   -0.56400200   -0.67577700
Ge    5.56861000    5.68799000    0.26008000      0.500596    0.95863200   -0.50154000
Ge    5.99712000   11.66499000    9.89447000     -1.540571    1.51427800    0.05953700
Ge    6.19964000   11.49263000    0.22939000     -0.763630   -0.58857200   -0.15639800
Ge    5.32835000   17.36834000    9.54251000      0.656428    1.40925300   -0.37027700
Ge    6.15881000   17.14175000   19.37212000     -0.915765    0.84483800    0.54295600
Ge    5.44023000    0.11135000    9.61741000      0.032671    0.90138500   -0.32552600
Ge    6.27339000   22.90189000    0.04092000      0.062018   -0.05879000   -1.29093300
Ge   11.73102000    5.79653000    9.58000000     -1.650730   -1.35679900   -0.15278200
Ge   11.51409000    5.97231000    0.03945000      0.472812    0.26168800   -0.47309200
Ge   11.45678000   11.45423000    9.35517000      0.427614    0.57412500    0.46573800
Ge   11.69172000   11.88801000    0.30641000     -0.128377   -1.10989400   -0.46321700
Ge   11.60728000   17.26545000    9.61119000      0.671508    1.11682800    0.33612500
Ge   11.58677000   17.88193000   19.39212000      0.716886   -0.24774200    0.54876900
Ge   11.92448000    0.17120000    9.82436000      0.011139    0.40497500   -0.25538800
Ge   11.26626000    0.06062000    0.03108000      0.088619    0.94681800   -0.13308400
Ge   17.74737000    5.59911000    9.88014000      0.206179    0.74927600    0.31280800
Ge   17.47279000    5.61525000    0.01457000     -0.005215   -0.78225400   -0.43344300
Ge   17.24350000   11.12882000    9.75637000      0.592052    0.38896500   -0.26952600
Ge   17.21459000   11.77914000    0.02086000      0.068774   -1.49986800   -0.58893100
Ge   17.74533000   17.16469000    9.98312000     -0.779529    0.02076100    0.13473800
Ge   17.36119000   17.49579000   19.31299000     -0.212332   -0.37344000   -0.30543100
Ge   17.39517000   23.05147000    9.95755000      0.097452    2.12476300   -0.50784000
Ge   17.19454000    0.16155000    0.04572000      1.143797    0.58885300   -0.65845200
Ge   23.17993000    5.90015000    9.90996000      0.645619   -0.68353600    0.08794900
Ge    0.09343000    5.51112000   19.51056000     -0.516747    0.94401900   -0.31832500
Ge   23.23321000   11.51363000    9.72383000      0.167094   -0.24237700    0.24033500
Ge    0.05134000   11.53541000    0.42618000      1.152474   -0.85773500   -0.38686800
Ge   22.99833000   17.47332000    9.82217000      0.729329    0.23078100   -0.02075400
Ge    0.50288000   17.41698000   19.39526000     -0.039269   -0.00301100   -0.49889300
Ge   23.07807000    0.23545000    9.63664000      1.502419   -0.48081700    0.88376900
Ge   23.06308000    0.00671000   19.36476000      0.432528   -0.06857400    0.52233900
Ge    2.47305000    5.99345000    7.22472000      0.112598    0.17564200    1.34484500
Ge    3.02071000    5.81047000   17.21382000     -0.729400    1.25674100    0.26101500
Ge    2.99431000   11.29117000    7.33955000      1.218162    0.62794900   -1.15443800
Ge    3.10588000   11.66933000   17.34575000      0.055877   -0.24860600    0.23565400
Ge    2.49863000   17.47414000    7.20019000      0.696211   -0.43163600    0.74622900
Ge    3.37549000   17.78493000   16.87333000     -0.430583   -0.79325000   -0.66682800
Ge    2.58501000    0.16453000    7.17049000      0.477869   -0.03339700   -0.66913700
Ge    3.02625000    0.07424000   17.13763000     -0.036799   -0.09067900   -0.00851400
Ge    8.83040000    5.75557000    7.06602000     -0.987408   -1.82368600   -0.58913200
Ge    8.83930000    5.63740000   17.34715000     -0.839709    0.15056100   -1.48908900
Ge    8.39336000   11.44986000    7.15201000      1.151803    0.58871600    0.30895200
Ge    9.14048000   11.72537000   17.09744000     -0.631714    0.62475500   -0.22693300
Ge    8.63943000   17.44660000    7.50881000     -0.129318   -0.59908300   -0.76654400
Ge    8.90042000   17.53562000   16.68488000     -0.172462    0.31163100    0.85901500
Ge    8.72050000    0.06639000    7.62837000     -0.974012    1.29219800    0.26155000
Ge    8.82027000    0.14178000   16.80496000     -1.757434    1.24241100    0.50951100
Ge   14.62340000    5.95610000    7.27873000      1.740885    1.57460400   -0.96436600
Ge   14.54627000    5.64857000   17.01866000     -1.079399    0.57079600    0.45915200
Ge   14.49698000   11.84338000    6.89834000      0.433265   -0.16419300    0.42462200
Ge   14.23091000   11.44946000   17.21169000     -0.451065    0.59172200    0.02098300
Ge   14.79094000   17.12242000    7.49470000      0.107482   -0.15115200   -0.47702100
Ge   14.31084000   17.18831000   16.98555000     -1.008885    0.76982400    0.08814600
Ge   14.89637000   23.16637000    7.31577000      2.460162   -1.00684900    1.19789900
Ge   14.50348000    0.03698000   17.17743000     -0.247194   -0.43036200    0.06164200
Ge   20.29321000    5.74103000    7.44728000      0.294392    0.91770700   -0.23036700
Ge   20.23491000    5.60809000   17.12489000      0.999289   -0.23201200    0.23010300
Ge   20.07900000   11.40509000    7.12491000      0.702778   -0.19508000   -1.10506200
Ge   20.45452000   11.47823000   17.45402000      0.295012   -1.39172200   -0.07338500
Ge   20.37999000   17.64121000    7.45022000     -0.809704    1.12857100   -0.73547500
Ge   20.65911000   17.54986000   17.18368000     -0.254033   -0.65061200   -1.35211900
Ge   20.16003000   22.99651000    7.29444000     -1.021624    0.25641900    0.27140700
Ge   20.21411000    0.05423000   17.24958000      0.970350    0.82895900   -1.18867500
Ge    2.61929000    3.03759000    4.91018000      0.941770    0.04709300   -0.39879500
Ge    2.99190000    3.11162000   14.80934000      0.740134    0.57923200   -0.88029400
Ge    2.86404000    8.74316000    4.66844000     -1.545928    0.46274600    0.40094300
Ge    2.85667000    8.84965000   14.83750000     -0.515386   -0.67371200   -0.98242900
Ge    2.63491000   14.50168000    4.98857000      0.627138   -0.05850900   -0.89722600
Ge    2.90975000   14.39026000   14.59761000      0.957084    0.42742600    0.88879800
Ge    3.19355000   20.07428000    4.84334000     -1.176791    0.77408500    0.84567300
Ge    2.66001000   20.69794000   14.60449000      1.492342    0.26374700   -0.48206700
Ge    8.78333000    2.69373000    4.67050000     -0.672699    1.29101500   -0.20322700
Ge    8.26938000    2.93507000   14.54811000     -0.153344    0.41039400    0.81760300
Ge    8.69014000    8.83766000    4.81133000      0.175211   -0.84601800    0.32370500
Ge    9.33016000    8.68506000   14.66979000     -1.826677   -0.04505300    0.78937100
Ge    8.69613000   14.24495000    4.83943000     -1.445847    1.93406100    1.64976900
Ge    8.85358000   14.55101000   14.28715000     -1.099052   -1.00444500    0.24092200
Ge    9.18199000   20.59011000    5.27132000     -0.561658   -0.57503600   -0.07043200
Ge    8.77227000   20.60853000   14.26619000     -0.271732    0.44772800    0.44952900
Ge   14.49479000    2.94792000    5.08555000     -0.192592    0.00048100   -0.86937600
Ge   14.15200000    3.17161000   14.64565000      0.879585   -1.14570200    0.25876000
Ge   14.66473000    8.75821000    4.86534000      0.964812    0.09854300   -1.16122200
Ge   14.93761000    8.75044000   14.60681000     -2.433120    1.43355700    1.47051300
Ge   14.58865000   14.72524000    4.52845000      0.154751   -0.15151000    0.97160200
Ge   14.23144000   14.15345000   14.61122000      0.527501    0.08195700   -0.39171800
Ge   15.01850000   20.27060000    4.86472000     -0.374421    0.30101400    0.63524500
Ge   14.46162000   20.23718000   14.74188000     -1.437500    1.19844200    0.24210100
Ge   19.75571000    2.87989000    5.14311000      2.159395    0.17358200   -0.84477300
Ge   20.43535000    2.88056000   14.66048000     -0.223690   -0.77277800   -0.15089700
Ge   20.09187000    8.41171000    4.83671000      0.386423   -0.28272900   -0.32179200
Ge   20.21318000    8.55877000   14.81999000      0.112052    0.47674100    0.78838100
Ge   20.17075000   14.84029000    4.68121000      2.033621   -1.31375900    1.36320400
Ge   20.38404000   14.44164000   14.80606000     -0.783123   -1.17494300    0.04796100
Ge   20.20872000   20.39734000    4.72911000     -0.190447   -0.47992400   -0.40399500
Ge   20.11622000   20.59910000   14.68689000      0.261162   -0.94623100    0.32457500
Ge    5.75115000    2.52646000    2.37568000     -0.679382    0.68654200    0.35146000
Ge    6.02829000    3.46011000   12.15866000     -0.836113   -0.49613900   -0.47356300
Ge    5.81712000    8.31388000    2.45271000      0.461443    1.60692300    0.22841600
Ge    5.88032000    8.92867000   12.60722000      1.020733   -1.66683100   -0.58419000
Ge    5.83237000   14.67719000    2.77715000      0.123291   -0.19459300   -1.65592600
Ge    5.89141000   14.80312000   12.13087000      0.231004   -1.34103800    0.55912600
Ge    6.05988000   20.00044000    2.67447000     -0.579367    1.20144800    0.19054000
Ge    5.67202000   20.74707000   11.73954000      0.558450   -1.16480300    0.27955700
Ge   11.51474000    3.36944000    2.34099000      1.380842    0.01894000   -1.13537400
Ge   11.19405000    3.02501000   11.99727000      1.067003    0.71207400    0.56066200
Ge   11.74285000    8.65833000    2.44659000      0.260065    0.42141100    0.16198900
Ge   11.71990000    8.62200000   11.94698000      0.085621    0.67650100    0.79390800
Ge   11.76153000   15.07106000    2.43056000      0.349108    0.04702400    0.27152400
Ge   11.47629000   14.49631000   11.80974000      0.531159   -0.15697900    0.20437700
Ge   11.75782000   20.46483000    2.60879000      0.001081    1.11300600   -0.05543100
Ge   11.73831000   20.56156000   11.95880000      0.012847   -0.86155800    1.62334300
Ge   17.48774000    2.99937000    2.65967000     -1.120067   -0.60334600   -1.35215300
Ge   17.44969000    3.00213000   12.31410000     -0.653005    0.14877100    0.33690600
Ge   17.49823000    8.68970000    2.22430000      1.197915   -0.35718700    0.70307900
Ge   17.70117000    8.48458000   12.38110000     -0.590965   -0.18848900   -0.43745400
Ge   17.35447000   14.67367000    2.34645000     -1.327583   -0.63435800   -0.60133900
Ge   17.15705000   14.05048000   12.25604000      0.654342   -1.28728700   -0.29401900
Ge   17.61056000   20.31039000    2.21488000      0.197895   -0.12874900    0.23532000
Ge   17.44453000   20.18192000   12.48970000      1.372213    0.90980800   -1.71202300
Ge   23.02155000    2.81757000    2.50566000     -0.044490   -0.64741100   -0.45266000
Ge    0.15092000    2.83571000   12.25108000     -0.173561   -0.45174500   -0.00526500
Ge   23.12580000    8.49459000    2.37212000     -0.925366    0.61103400    0.57181100
Ge   23.19855000    8.70754000   12.45941000      0.407522   -0.97430100   -0.23614100
Ge    0.02106000   14.34364000    2.42374000      0.354038    0.98038400   -0.27774300
Ge   23.09123000   14.40188000   12.27252000      0.545201   -0.25176200    0.07187000
Ge    0.09151000   20.34317000    2.33206000      0.123855   -0.64852400    0.43564100
Ge    0.14162000   20.61730000   12.20393000     -0.397701    0.55386200    0.63905800
Se    1.31253000    1.29968000    1.31403000     -0.657914   -0.08926200   -0.14271700
Se    1.55454000    1.59612000   10.75970000     -0.521573   -0.11197900   -0.30032800
Se    1.31195000    7.36729000    0.96749000      0.967983   -0.30875900   -0.33776200
Se    1.57535000    7.22839000   11.09272000     -0.893798    0.55342200    0.48280600
Se    1.61749000   12.77962000    1.75543000      0.081322    0.07114200   -0.64507800
Se    1.32790000   13.19860000   10.85266000      0.076513   -0.38453100   -0.35029200
Se    1.71835000   18.78024000    1.40229000      0.034734    0.36049700   -0.04365300
Se    1.36702000   19.09332000   10.84895000      0.077286   -0.40773300   -0.00916200
Se    7.46216000    1.39598000    1.07547000     -0.086567    0.29178700    0.33456600
Se    6.98491000    1.63936000   10.70397000     -0.078782    0.19911000    0.59308500
Se    7.35997000    6.86901000    1.42414000     -0.683669    0.37040400   -0.05528500
Se    7.24001000    7.35129000   10.98834000      0.150267    0.63604500    0.57602600
Se    7.29671000   13.13586000    1.49815000      0.786054    0.09341000    0.30534700
Se    7.40642000   13.19904000   10.96590000     -0.197599    0.68525400    0.18518500
Se    7.37374000   18.33747000    1.72433000      0.591236   -0.19385500   -0.89267100
Se    6.90299000   18.94549000   10.51921000      0.110728    0.14618200    0.41988900
Se   12.78746000    1.70301000    0.92185000      0.025482    0.36544900    0.72055300
Se   13.11043000    1.90812000   11.09702000     -0.403971   -0.58099600   -0.24385500
Se   13.27045000    7.21709000    1.14132000     -0.769319    0.12440700    0.34035500
Se   13.14773000    7.20486000   10.69319000      0.919483    0.32097200    0.24058900
Se   13.13283000   13.35916000    1.45236000      0.458430    0.23203400    0.15257100
Se   12.98817000   13.00326000   10.56202000     -0.595766   -0.08837700    0.16888900
Se   13.11028000   19.28740000    1.07339000      0.340276   -0.35573200   -0.24730700
Se   13.02591000   18.85045000   11.03236000      0.416762   -0.87678500   -0.61736500
Se   18.86539000    1.48132000    1.21405000     -0.555952    0.14912800    0.49456300
Se   18.78361000    1.42441000   11.18152000      0.216517   -0.23589100   -0.10475700
Se   18.94869000    6.91749000    1.27121000      0.418323    0.95132000    0.37117000
Se   19.29732000    7.07873000   11.27650000     -0.957330   -0.16716300   -0.54330100
Se   18.75596000   13.20873000    1.08597000      0.377234   -0.05197700   -0.10086300
Se   18.75048000   12.52946000   11.05678000     -0.614622    0.59304700   -0.03980300
Se   18.95503000   18.87872000    0.79931000      0.101330    0.29225500    0.59002300
Se   18.98160000   18.62165000   11.33226000      0.238702    0.58248700    0.48662900
Se    4.12889000    4.19021000    1.27283000      0.215979   -0.74306200    0.33482600
Se    4.34846000    4.69613000   10.96157000     -0.046899   -0.36738900    0.16354800
Se    4.41268000   10.05970000    1.54608000      1.126329    0.19618000   -0.93739000
Se    4.65880000   10.25016000   11.19713000     -1.339571    0.35914600   -0.18922700
Se    4.60652000   15.59668000    0.93406000     -0.173462    0.72293300   -0.01997100
Se    4.22672000   16.13153000   11.19765000     -0.913350   -0.05284500   -0.22107100
Se    4.74841000   21.63676000    1.19178000     -0.185881   -1.10121200    1.10823800
Se    3.96566000   21.66458000   10.41828000     -0.194717    0.70590900    0.12337200
Se    9.90898000    4.62769000    1.14689000      0.171517    0.22856200    0.20708200
Se    9.75226000    4.35418000   10.77769000      1.206651    1.12091100   -0.63138500
Se   10.25444000   10.33056000    1.47606000      0.267587   -0.08201100    0.01839000
Se   10.10134000    9.92375000   10.66959000      0.477446   -0.07297400    0.22377800
Se   10.32408000   16.50582000    1.32616000     -1.172066    0.02528700    0.01502500
Se    9.95188000   15.88078000   10.45278000      0.172162   -0.57281700    1.00198900
Se    9.99162000   21.99241000    1.60259000      0.502617   -0.85749300    0.18384900
Se   10.31496000   22.00799000   10.92004000     -0.141606    0.63660000   -0.32058700
Se   15.93490000    4.50608000    1.43834000      0.233818   -0.74755800   -0.11126600
Se   16.02902000    4.48859000   11.00192000      0.182151   -0.34216800    0.35839700
Se   15.94557000    9.90272000    1.06767000     -0.461931    1.18212700   -0.51690400
Se   15.94631000    9.86827000   11.38643000      0.284531   -0.19648200   -0.74465600
Se   15.77505000   16.20985000    1.06274000      0.891023   -0.66422900    0.48018300
Se   16.09847000   15.82614000   11.12770000     -0.391730    0.18158000   -0.30518800
Se   16.09079000   21.58833000    0.95827000     -1.433865   -0.22316900    0.13677600
Se   16.05145000   21.53845000   11.02416000     -0.800520   -0.57217100    0.36765200
Se   21.75211000    4.40144000    1.25051000     -0.362066   -0.60992400    0.26620300
Se   21.86113000    4.24592000   11.11070000     -0.200541    0.33481100   -0.09676700
Se   21.64906000   10.27503000    1.58167000     -0.184995   -0.37842700   -0.24086500
Se   21.82490000   10.13946000   11.16247000     -0.130810    0.14689800   -0.47365000
Se   22.23166000   15.91619000    0.88162000     -0.653678   -0.54525500    0.27001000
Se   21.72718000   16.02533000   11.27218000     -0.803637    0.53107600   -0.22677400
Se   21.72025000   21.46499000    1.01218000      0.518784    0.96345700   -0.30566600
Se   21.91030000   22.25248000   11.27152000     -0.697188   -0.48890000   -0.37489200
Se    1.39581000    4.40809000    8.59221000     -0.565224    0.24724000    0.22942700
Se    1.57062000    4.24717000   18.20231000     -0.291410   -0.52566600    0.32223100
Se    1.43307000   10.03112000    8.43406000     -0.801412   -1.05967800    0.60849000
Se    1.81561000   10.16179000   18.73248000     -0.501141    0.32970000    0.01145800
Se    1.16650000   15.91626000    8.52897000     -0.087988    0.88526900    0.17897000
Se    1.86758000   16.11336000   17.82917000     -0.226771    0.75155000    0.66743000
Se    1.28460000   21.91300000    8.52213000      0.077960   -0.13830900   -0.21896500
Se    1.42331000   21.84537000   18.12574000     -0.520548    0.27949300    0.16488900
Se    6.87722000    4.57192000    8.08537000      0.627597    0.21167600    0.40143300
Se    7.20619000    4.41690000   18.61925000      0.263045   -0.96476200   -0.54265800
Se    7.08604000   10.16029000    8.62679000      0.657501   -1.69852800   -0.80173600
Se    7.91515000   10.13339000   18.40978000     -0.700540    0.36253500    0.34519800
Se    6.75455000   16.03878000    8.12852000      0.263265    0.03569200    0.37995800
Se    7.71264000   15.96021000   18.08065000      0.005696   -0.20151800   -0.18062300
Se    7.33795000   21.96803000    9.12490000      0.009570   -0.03829500   -0.88423000
Se    7.62193000   21.63397000   17.98037000     -0.186300    0.19490100    0.40717500
Se   13.27935000    4.48864000    8.25841000     -1.406681   -1.72541200    1.17409700
Se   12.59686000    4.24198000   18.29967000      1.282274    0.88043300   -0.66873500
Se   13.03698000   10.28513000    7.98912000     -0.190883   -0.40536000    0.24520600
Se   13.18060000   10.04478000   18.82473000     -0.602872    1.01510500   -0.20584400
Se   13.10014000   15.74295000    8.55551000      0.307508    0.14784800   -0.26847100
Se   12.38239000   16.15322000   18.03567000      1.095953   -0.50824900    0.00056000
Se   13.48666000   21.82257000    8.74472000     -0.242468    0.19607700   -0.08744000
Se   12.97168000   21.93499000   18.56322000      0.173304   -0.09906500   -0.42743700
Se   19.27020000    4.11711000    8.79626000     -0.495951   -0.30567800    0.11432300
Se   18.93300000    3.97105000   18.29493000     -0.562455    0.57704100    0.15722000
Se   18.89512000    9.83425000    8.31760000     -1.155558   -0.10509000    0.83867900
Se   18.47734000   10.19754000   18.08004000      0.516171    0.45705500    1.05077800
Se   19.21018000   16.00507000    8.55816000     -0.392314   -1.18244900    0.45267000
Se   19.00285000   16.09171000   18.22404000      0.031595   -0.38086200   -0.07936100
Se   18.97499000   21.73223000    8.91352000      0.535700   -1.09435500   -0.49531700
Se   18.84818000   21.87120000   18.34748000     -1.309021    0.01214000    0.89552800
Se    4.25290000    1.66582000    8.11081000     -0.000263   -0.54919700    0.24153800
Se    4.60062000    1.14905000   18.56836000     -0.017334    0.54706700   -0.00399100
Se    4.11850000    7.30962000    8.45679000     -0.310078    1.04716600   -0.23147500
Se    4.41258000    7.32308000   18.36329000      0.306225   -0.01220900    0.75708500
Se    4.10602000   12.85983000    8.70784000      0.866898    0.07656200    0.36991900
Se    4.99634000   12.90805000   18.17902000     -0.255420   -0.04237800    0.11266500
Se    4.05449000   19.07866000    8.33086000     -0.447849   -1.40797100   -0.11416100
Se    4.84047000   19.00756000   18.29407000      0.244549   -0.39749700    0.25603000
Se   10.07488000    1.57255000    9.06879000      0.067755   -0.13570300   -1.00471800
Se   10.05372000    1.76241000   18.14628000      0.044877   -1.24621100    0.18405400
Se   10.08520000    7.06546000    8.44691000      0.458076    1.55158600    0.18708900
Se   10.04103000    7.39227000   18.27439000      0.706819    0.27183800    0.29747700
Se    9.85388000   12.95200000    8.46571000     -0.112340   -0.24132400   -0.36576100
Se   10.46802000   13.38719000   18.39672000     -0.409101   -0.85548900   -0.13767900
Se   10.17671000   18.85666000    8.61286000      0.265110    0.12351100   -0.04221000
Se   10.11450000   19.09559000   18.15107000     -0.974025    0.83238500   -0.77097900
Se   16.39067000    1.50503000    8.46331000     -0.520364   -1.11753200    0.70790100
Se   15.67670000    1.68664000   18.40836000      0.739583   -0.55166600    0.22923300
Se   16.56243000    7.22918000    8.59200000     -1.035033   -0.30754300   -0.50543500
Se   16.09671000    7.05031000   18.25317000     -0.371235    0.22987000   -0.13126000
Se   15.95911000   12.88646000    8.58341000      0.143137   -0.22194700   -0.09468600
Se   15.87147000   13.02901000   18.05564000     -0.485885    0.62225600    0.23014100
Se   16.16721000   18.52798000    8.76982000      0.210398    0.39929400    0.25788900
Se   15.83462000   18.76330000   17.95898000     -0.078103   -0.15387000    0.30003200
Se   21.51681000    1.32001000    8.35344000     -0.062613    1.73600600   -0.19350300
Se   21.60738000    1.68556000   18.39729000      0.053064   -0.69650200   -0.13911600
Se   21.66738000    7.36092000    8.82806000     -0.312646   -0.39927300   -0.76228600
Se   21.58890000    6.95129000   18.64886000      0.101400   -0.05080200   -0.72403900
Se   21.58343000   12.60556000    8.40840000      0.505107    1.55548600    0.40149400
Se   22.12777000   12.88788000   18.42673000     -0.444803    0.60525900   -0.14215400
Se   21.69558000   19.17237000    8.61814000      0.536517   -0.50568500    0.50636600
Se   21.97241000   18.95590000   18.56050000      0.412644   -0.15845800   -0.11696900
Se    0.95164000    1.56948000    5.86989000      1.019871   -0.26170200    0.39858400
Se    1.56157000    1.56462000   15.78571000     -0.028368   -0.70524400    0.61259400
Se    1.15438000    7.31986000    5.89596000      0.152087    0.92688200   -0.31034700
Se    1.56965000    7.21247000   15.97220000     -0.589986   -0.16379700   -0.03904000
Se    1.58831000   12.78109000    6.07831000     -1.438425   -0.50269600    0.39462500
Se    1.54495000   13.13411000   16.26824000      0.332063    0.07565500   -0.70845300
Se    1.28425000   18.72327000    5.68480000      0.042996    0.74865500   -0.16415000
Se    1.49148000   19.00782000   15.71073000      0.344081   -0.71629000    0.41997500
Se    7.18245000    1.50205000    5.90450000      0.735142   -0.92706400    0.91725900
Se    6.73355000    1.52786000   15.72027000      1.565949   -0.70524600    0.10823700
Se    7.37649000    6.96363000    5.63165000      0.198911    0.47647600    0.36875200
Se    7.66221000    7.20629000   15.79284000      0.353652   -0.01332200    0.45172600
Se    6.96773000   13.07601000    6.12239000      0.560680   -0.38546600   -0.45040700
Se    7.52687000   13.07407000   15.69102000      0.375837   -0.49977000    0.46960800
Se    7.54590000   19.24530000    6.39036000     -0.284681   -0.25113200   -0.25094400
Se    7.44300000   18.94897000   15.51445000     -0.438971    0.42682000   -0.11559500
Se   13.41596000    1.14098000    6.26184000     -2.814630    1.59899100   -1.37011100
Se   12.94932000    1.40627000   16.08903000     -0.168200    0.93479200   -0.94698800
Se   13.09620000    7.36761000    5.81205000      0.255123   -1.16110300    1.14699300
Se   13.24509000    7.55170000   15.93705000      0.719430   -0.53859700    0.06539100
Se   13.00165000   13.14053000    5.45057000      0.458855   -0.21341100    0.84047900
Se   12.67976000   12.97418000   15.89339000      0.239249   -0.52961800    0.65909100
Se   13.56745000   18.74343000    6.22255000     -0.088945    0.60975200   -0.19752500
Se   12.87295000   18.80842000   15.80228000      0.345735   -0.10233600   -0.24283700
Se   18.58490000    1.07734000    5.92431000     -0.502982   -0.41190800    0.48927600
Se   18.91717000    1.22026000   15.55477000      0.121619    0.17308500    0.38125400
Se   18.57345000    7.12816000    6.20931000      0.784789   -0.45039700    0.03379000
Se   18.77359000    6.96955000   15.87273000     -0.415351    0.07640200    0.10197300
Se   18.87697000   13.22247000    5.85086000     -0.473119   -0.54520800    0.63322900
Se   19.10151000   12.70576000   16.08046000     -0.063212    1.34480400   -0.82852000
Se   18.80617000   19.13337000    6.31511000      0.141494    0.11838200   -0.38280500
Se   18.92044000   18.62200000   15.65381000      0.966930    0.33101700    0.31102100
Se    4.02887000    4.81443000    6.07336000      0.588953   -2.08593600   -0.99756600
Se    4.48985000    4.38554000   16.28767000      0.694546   -1.17807700   -1.19860500
Se    4.45304000   10.20922000    5.58210000     -0.274561    0.41887400    1.43955100
Se    4.38371000   10.09377000   16.00828000      0.539242    0.69465700    0.43285700
Se    4.03784000   15.90395000    6.17292000      0.561945    0.53038400    0.41653000
Se    4.65704000   16.08323000   15.61997000     -1.220996   -0.12008400   -0.09024900
Se    4.43199000   21.80588000    6.17660000     -1.328874   -0.02873500   -0.16280700
Se    4.37806000   21.71288000   16.01399000     -0.342151    0.06041900   -0.29154900
Se   10.29330000    4.21247000    5.73791000     -0.534622    0.32685800    0.68714600
Se    9.98036000    4.14065000   15.73168000      0.309453    0.03319400    0.95936300
Se   10.18081000   10.08409000    6.13222000     -0.664600    0.55729900    0.25005600
Se   10.63953000   10.35719000   15.73834000      0.396773    0.07053200    0.10944400
Se   10.01606000   15.78334000    6.33409000     -0.391608    0.17132800   -0.16444200
Se   10.12952000   15.77950000   15.72124000      2.011992    0.42444600    0.39277300
Se   10.37459000   21.87017000    6.88589000      0.846585   -0.12073500   -0.71195000
Se   10.32828000   22.26638000   15.47640000      0.080188   -1.14982800   -0.94037000
Se   16.07980000    4.11899000    6.39653000     -0.459549    0.77390400    0.06931000
Se   16.02290000    4.28499000   15.75441000     -0.865188   -0.16748300   -0.01921000
Se   16.12739000   10.12389000    6.14938000     -0.554753    0.43940400    0.06140400
Se   15.94187000   10.51121000   15.93131000      0.391177   -0.78795000   -0.39473800
Se   16.23075000   15.81248000    6.05496000     -0.631463   -0.29458500   -0.14024600
Se   15.63666000   15.76629000   15.77273000      0.843912   -0.55571400   -0.37021000
Se   16.52615000   21.83169000    5.97329000     -0.923532   -0.12477600    0.35977700
Se   15.80516000   21.39442000   16.29596000      0.522630    0.99632400    0.27175400
Se   21.56551000    4.24705000    6.03694000     -0.069385   -0.01116900    0.19361000
Se   21.90254000    4.27361000   15.77647000     -0.168871    0.77581200    0.93846900
Se   21.59400000    9.80772000    5.96103000     -0.142062    0.80290800    0.64228500
Se   21.66764000    9.63852000   16.37784000      0.111745    0.50905600    0.01620400
Se   21.62307000   16.34747000    6.00283000      0.650582   -0.83189500   -0.82713500
Se   22.13848000   15.70100000   15.59223000     -0.594159    1.33396900    1.21902400
Se   21.61509000   21.94590000    5.89373000      1.181514   -0.76720400   -0.49018800
Se   21.60875000   21.55552000   16.24155000      0.177557    0.61650900    0.06524700
Se    4.10859000    1.28783000    3.77950000      0.101841    0.69658200   -0.12722600
Se    4.62115000    1.94065000   13.45694000     -0.252767   -0.48134300   -0.00745000
Se    4.38014000    7.18623000    3.90364000      0.070440   -1.65939400   -0.51305300
Se    4.25162000    7.38990000   13.37409000     -0.555612    0.35493600    0.39689700
Se    4.41363000   13.19172000    3.76334000     -1.103868   -0.30151600    0.68072300
Se    4.52283000   13.12380000   13.36080000      0.205083    0.06100500   -0.05427400
Se    4.42135000   18.48707000    3.70642000      0.708419    0.26321000   -0.33183300
Se    4.44051000   19.44948000   13.25533000     -0.920954   -0.54035700    0.60270800
Se   10.16349000    1.74136000    3.02124000     -0.873440   -2.32879500    1.16575300
Se    9.74508000    1.67668000   13.20450000     -0.037312   -1.18274000    0.12285700
Se   10.05890000    7.34772000    3.59439000      0.671637   -0.30462700   -0.46678400
Se   10.31704000    7.13097000   13.30301000      0.594490   -0.07171400   -0.72408400
Se   10.43783000   13.47771000    3.66006000      1.003110   -1.64111000   -0.87154800
Se    9.98358000   12.99855000   12.97218000      0.650859   -0.06007400   -0.14816100
Se   10.73779000   19.03025000    4.17941000     -0.679065    0.14479600    0.16470200
Se    9.80632000   19.07929000   12.89506000      1.386158    0.23153900   -0.39001400
Se   15.78840000    1.55745000    3.62108000      0.295935   -0.02275300   -0.01500300
Se   15.71449000    1.71007000   13.41145000      0.170112   -0.21481600    0.07074600
Se   16.05545000    7.27308000    3.39649000     -0.933500   -0.12554200    0.95386100
Se   16.17443000    7.17098000   13.75882000      1.488195   -1.99042600   -1.21396200
Se   15.95688000   12.98076000    3.50213000      0.264792    1.43081100   -0.32227300
Se   15.71222000   12.55619000   13.49409000     -0.176620    0.76474200   -0.19592200
Se   16.22404000   18.79517000    3.54185000      0.557276   -0.28460100   -0.57975000
Se   15.93882000   18.93358000   13.57672000     -0.279241   -2.27237900    0.33748200
Se   21.29360000    1.50139000    3.51601000     -0.117954    0.52982700    0.67969500
Se   21.87421000    1.34111000   13.51354000      0.204648    0.56835700   -0.19653700
Se   21.89341000    7.05101000    3.77222000     -0.942257   -0.32379400    0.02189500
Se   21.61949000    7.14514000   13.61004000      0.872258    0.05952200   -0.67209700
Se   21.66857000   13.19588000    3.63439000     -0.951765   -0.15183000    0.45785200
Se   21.74673000   12.91027000   13.52594000     -0.071080   -0.07144000   -0.22068000
Se   21.40808000   18.93650000    3.09241000      0.268794    0.43201300    0.83806700
Se   21.81444000   19.29106000   13.53360000      0.237348   -0.21265400   -0.24649700
Se    1.32970000    4.36110000    3.38177000      0.176409    0.14526700    0.51081200
Se    1.63482000    4.39183000   13.20045000      0.294921    0.31464200    0.87378400
Se    1.04422000   10.09986000    3.64559000      1.171982   -0.42223800    0.31131900
Se    0.99958000   10.24628000   13.90282000      0.978284   -0.23988100    0.20751800
Se    1.19691000   15.92476000    3.72514000      0.295895    0.01800900    0.26033900
Se    1.53591000   15.79510000   13.29788000     -0.260167    0.34510400    0.11054300
Se    1.54761000   21.60832000    3.83727000     -0.068171    0.02419700   -0.50752900
Se    1.37751000   22.35348000   13.47053000      0.047471   -1.05284100   -0.11270600
Se    7.14097000    4.20756000    3.38874000      0.256359   -0.80143600    0.67007800
Se    7.19068000    4.84306000   13.70617000     -0.092495    0.34397000   -0.65102800
Se    7.10070000   10.05452000    3.73397000     -0.645749    0.48971100   -0.87530500
Se    7.31738000   10.03477000   14.08729000      0.548868    0.45633800   -0.24868200
Se    7.41786000   16.02254000    3.78569000      0.518476    0.17021800    0.42477800
Se    7.31112000   16.12221000   13.55808000     -0.381190    0.38970500   -0.77826100
Se    7.29709000   21.74320000    4.17525000      0.036822   -0.51845800   -0.57793800
Se    7.16951000   22.02816000   13.10025000      0.359141    0.68286200    0.17341600
Se   12.90474000    4.54776000    3.79492000      1.137985   -0.01201000    0.64930800
Se   12.89903000    4.57105000   13.25314000     -0.773806   -0.07655900   -0.22067300
Se   13.18282000   10.19421000    3.70725000     -0.535888   -0.06806300   -0.30635200
Se   13.44341000   10.07370000   13.19869000     -0.950196   -0.33748000   -0.44041600
Se   13.00536000   16.47992000    3.92932000      0.502347   -0.38341500   -0.39825800
Se   13.01690000   15.80752000   13.44070000     -0.705657   -0.23836200   -1.08023100
Se   13.62215000   21.78631000    3.63090000     -0.717157   -0.10602400   -0.06817200
Se   13.38794000   21.96631000   13.42658000     -0.874805   -0.94061200   -0.43742900
Se   18.57524000    4.53484000    3.98467000      0.250242    0.55385400    0.13907600
Se   19.08153000    4.40837000   13.47511000     -0.647669   -0.12129600   -0.39602000
Se   18.75307000   10.09858000    3.82323000     -0.039463   -0.35324700   -0.92039900
Se   18.79774000   10.08390000   13.67689000      0.279025    0.53638600    0.25186700
Se   18.88174000   16.12002000    3.38069000     -0.752678    1.66094300   -0.64598900
Se   18.43563000   15.38194000   13.70434000      0.632054    1.01607500    0.31665700
Se   18.89941000   21.96403000    3.34665000      0.065989   -0.59170800    0.42313400
Se   18.76627000   21.96504000   13.30461000     -0.087013    0.07397300    0.37605400
