384
23.23808000 23.23808000 19.51320000
Ge    5.73025000    5.84888000    9.57077000      0.110472    0.63071000    0.32346800
Ge    5.53885000    5.74121000    0.28388000      0.201070   -1.08758100   -0.81725400
Ge    5.86807000   11.85665000    9.88499000      0.587122   -1.23672500   -0.42780200
Ge    6.13844000   11.48623000    0.21448000      0.480424    1.19413800   -0.13068000
Ge    5.40366000   17.41663000    9.51491000     -0.082053   -1.00287500    0.21713200
Ge    6.08436000   17.08491000   19.49004000      0.490476    0.35013200   -0.13819100
Ge    5.44394000    0.24227000    9.73084000      0.284914   -1.28032300    0.04961400
Ge    6.32932000   22.83000000    0.03340000     -1.284050    0.69469300    0.36281300
Ge   11.64401000    5.64226000    9.61774000      0.252712    0.91633600    0.45228000
Ge   11.47814000    5.95518000   19.47829000     -0.350207   -0.46782500   -0.09629800
Ge   11.51041000   11.42998000    9.41653000     -0.208357    0.31828800    0.03102200
Ge   11.71816000   11.85385000    0.22188000      0.273798    0.68239800    0.33155900
Ge   11.62501000   17.34553000    9.68948000     -0.451456   -0.67497000   -0.24196400
Ge   11.54981000   17.96583000    0.03793000     -0.770084   -0.39454300   -0.47897300
Ge   11.86222000    0.06175000    9.82749000     -0.878701    0.06978200   -0.47921700
Ge   11.27875000    0.30678000    0.02730000      0.208597   -1.27796200    0.76754800
Ge   17.82036000    5.57046000    9.82400000     -1.523266   -0.98934100   -0.63735500
Ge   17.52258000    5.38154000   19.44616000     -0.194412    1.30573500   -0.02870900
Ge   17.55273000   11.05170000    9.75779000     -1.093703    1.12029400    0.06632600
Ge   17.14699000   11.72863000   19.33774000     -0.652079    0.71487300    0.61028300
Ge   17.62621000   17.03994000    9.96581000      0.469388   -0.11824100    0.58463200
Ge   17.41003000   17.49516000   19.13528000     -0.232025   -0.33427300    1.18227400
Ge   17.50773000    0.10885000    9.98851000      0.442802   -1.39560700    0.34544100
Ge   17.43099000    0.21743000   19.41697000     -1.096385   -0.18765300    0.86121900
Ge   23.20936000    5.95599000    9.96484000     -1.461359    0.26441800    0.54130800
Ge   23.15967000    5.68634000   19.36744000      0.138444   -0.33176300    0.34453100
Ge   23.14818000   11.55257000    9.96089000      0.189063   -0.10649700   -1.70776800
Ge    0.20844000   11.40656000    0.17979000     -1.229430    0.78502200    0.40019100
Ge   23.02223000   17.60588000    9.73106000     -0.864052   -0.78387600    0.58702500
Ge    0.60277000   17.50753000   19.41286000     -1.810345    0.97302400    0.19675000
Ge   23.00371000    0.33025000    9.78557000     -1.155697    0.03046300   -0.83763600
Ge    0.05707000   23.22855000    0.03819000     -0.516053   -0.48581300   -0.86666300
Ge    2.55501000    5.99751000    7.46168000      0.505541   -0.14661200   -1.06566600
Ge    2.89707000    5.93055000   17.27496000      0.229155   -0.66646900   -0.83899900
Ge    3.11134000   11.36030000    7.18189000     -1.582311    0.21326700    1.86618500
Ge    3.20208000   11.62414000   17.25108000     -0.664943   -0.03959700    0.50052400
Ge    2.59317000   17.46104000    7.29005000      0.032603   -0.21496700   -1.02825500
Ge    3.33301000   17.74552000   16.81994000      0.612763   -0.23805500    0.91790200
Ge    2.50144000    0.20969000    7.34060000      0.722128   -1.19833700   -0.99869200
Ge    2.91832000    0.06498000   17.18227000     -0.048891   -0.26984800    0.70657800
Ge    8.72562000    5.68524000    7.02260000      1.618590    1.39578100    0.26965200
Ge    8.73419000    5.60665000   17.14713000      0.007670    0.74969200    0.71651100
Ge    8.58345000   11.58845000    7.15263000     -1.192176   -0.83311200   -0.27113500
Ge    8.95452000   11.73011000   16.90352000      1.129128   -0.61118300    1.50144100
Ge    8.64304000   17.33785000    7.37076000     -0.134168    0.78579100   -0.04870400
Ge    8.68766000   17.48358000   16.79001000     -0.087844   -0.53974500    0.03585600
Ge    8.56331000    0.08034000    7.69270000      0.887297   -1.05435100   -0.07429200
Ge    8.48310000    0.23216000   16.83171000      2.502935   -2.47490900    0.75580700
Ge   14.70438000    6.08373000    7.15474000     -1.322014   -0.78579300    0.24489400
Ge   14.43774000    5.72152000   17.02403000      0.768558    0.04197600    0.19384500
Ge   14.64027000   11.97047000    6.95252000     -1.130841   -0.63015500    0.78880700
Ge   14.13145000   11.70166000   17.10898000      0.962073   -0.43129300    0.14384800
Ge   14.88155000   16.91922000    7.66329000     -0.451651    0.90722600   -0.68437200
Ge   14.23656000   17.26203000   17.03170000      1.106556    0.04633500   -1.68201900
Ge   15.34445000   23.16330000    7.39070000     -2.969707    0.39292600    0.01001400
Ge   14.41458000   23.20866000   17.15005000      0.088168    0.97507700    0.44891500
Ge   20.22387000    5.87725000    7.36555000      0.415228   -1.86273100   -0.16935300
Ge   20.36188000    5.58785000   17.12432000     -1.339845    0.76446300    0.81866800
Ge   20.22715000   11.37895000    6.95984000     -0.988325    1.27234300    1.22220100
Ge   20.39071000   11.50232000   17.56027000     -0.594446    0.87126500   -0.46849400
Ge   20.26651000   17.78551000    7.32298000      0.312477   -1.32905200    0.02455100
Ge   20.48103000   17.69816000   16.87340000      1.662175   -1.19236900    0.92318700
Ge   20.04889000   22.98934000    7.31892000      1.395540   -0.07407400   -0.21963200
Ge   20.35736000    0.08796000   17.37973000     -1.188093   -0.29983300   -0.64576000
Ge    2.80393000    3.08130000    4.90878000     -0.314095   -1.28966100   -0.87047700
Ge    3.10554000    3.15647000   14.77740000     -1.154576   -0.20147400   -0.16251500
Ge    2.82330000    8.72172000    4.77767000      2.471084   -0.61454400   -0.39589000
Ge    2.81119000    8.86076000   14.82017000      0.157851    0.52066300    0.48751500
Ge    2.74842000   14.38863000    4.86112000     -1.579695    0.95603100    1.03910600
Ge    3.03488000   14.46261000   14.81775000     -0.385929    0.69868800   -0.87122500
Ge    2.99516000   20.19445000    4.96104000      0.556852   -0.36209700   -0.28737500
Ge    2.96648000   20.56685000   14.54485000     -1.441308   -0.47667200    0.42052000
Ge    8.71398000    2.90515000    4.85260000      0.413663   -0.93369400   -0.04802200
Ge    8.32080000    2.93644000   14.54083000      0.304260    0.06656600   -0.42054500
Ge    8.74975000    8.71589000    4.82503000      0.017420    0.36116900   -0.30187900
Ge    9.20038000    8.67352000   14.80989000      1.222958   -0.21782300   -0.74452600
Ge    8.60903000   14.37018000    5.06675000      0.204262   -0.97630600   -1.72774000
Ge    8.66749000   14.36228000   14.36652000      0.969124    0.88301300    0.30216500
Ge    9.08645000   20.49161000    5.29488000     -0.313276    0.27279300   -0.17497900
Ge    8.74188000   20.58801000   14.47879000      0.177873   -0.41542100   -0.48806400
Ge   14.50818000    2.89090000    5.00138000     -0.053207    0.17788600   -0.38736200
Ge   14.38972000    3.04080000   14.55559000     -0.673501    0.31063900    0.04047300
Ge   14.78850000    8.79040000    4.61852000     -1.280497    1.19056800    1.18580500
Ge   14.81827000    8.62973000   14.80016000      0.916200    0.16510600   -2.09492400
Ge   14.73009000   14.87090000    4.63405000     -1.181880   -0.32438700    0.34471800
Ge   14.34955000   14.12892000   14.56446000     -0.556358    0.36261300   -0.46169500
Ge   14.79760000   20.29851000    5.04395000      0.390386   -0.33830000   -0.88480100
Ge   14.34549000   20.57305000   14.76433000      0.841599   -1.46295200    0.20714600
Ge   20.02950000    3.00347000    5.01780000     -1.063991    0.02282000   -0.06652500
Ge   20.47893000    2.83890000   14.56667000     -0.214707    0.65604600    1.19341200
Ge   20.19703000    8.37858000    4.74854000     -0.271984    0.83494600    0.07857400
Ge   20.22255000    8.49720000   15.01690000     -0.442035    0.18599500   -0.74933100
Ge   20.25993000   14.53140000    4.78096000     -1.046263    1.58680700    0.33306000
Ge   20.07721000   14.25570000   14.65663000      1.069055    0.60641500    0.63210800
Ge   20.22364000   20.39677000    4.75743000      0.334633   -0.14830000   -0.05720400
Ge   20.06647000   20.45245000   14.65246000      0.641324    0.60824400   -0.36564800
Ge    5.86769000    2.58074000    2.32772000     -0.146309    0.15045500    0.62468600
Ge    5.93913000    3.43364000   11.99395000     -0.623436    0.12610800    1.21779500
Ge    5.88561000    8.54150000    2.56821000     -0.681584   -1.09096600   -0.13173800
Ge    6.07620000    8.74184000   12.50121000     -0.786452    0.46483400   -0.46535700
Ge    5.80241000   14.68831000    2.66219000      0.992512   -1.12390800   -0.09785400
Ge    5.80156000   14.63410000   12.27898000      0.018402    0.57999000   -0.91034700
Ge    5.89841000   19.96625000    2.65540000      1.088722    0.79777900   -0.07931800
Ge    5.92652000   20.50361000   11.83814000     -0.303436    0.89380800    0.49656900
Ge   11.61447000    3.24427000    2.32352000     -0.948848   -0.14142000    1.36585200
Ge   11.43299000    3.29542000   12.23474000     -1.517365   -1.93136800   -1.05884700
Ge   11.88230000    8.63735000    2.48827000     -0.511461   -0.08137200   -1.11086300
Ge   11.65029000    8.80534000   12.03554000     -0.043750   -0.26825400   -1.09870000
Ge   11.81443000   15.08530000    2.57868000     -0.759301   -1.04369300   -0.53366500
Ge   11.59078000   14.47402000   12.00616000     -1.158656    0.10158800   -0.49933300
Ge   11.74616000   20.58901000    2.73933000      0.205843   -1.65307300   -0.01720900
Ge   11.61601000   20.36530000   12.26348000     -0.281655   -0.30816600   -1.04723600
Ge   17.35182000    2.94399000    2.33396000     -0.292156    0.49606400    1.16061300
Ge   17.41055000    2.93547000   12.52556000      0.749971    0.12586800   -0.18878400
Ge   17.64392000    8.71920000    2.02566000     -1.427424   -1.00372100   -0.33393700
Ge   17.65006000    8.50396000   12.27670000      0.613438   -0.77314500    0.19956200
Ge   17.26320000   14.73580000    2.29149000      2.812971   -0.16898500   -0.18235100
Ge   17.31555000   14.01090000   12.16217000     -0.636769    1.46864300    0.23751600
Ge   17.59462000   20.29896000    2.20582000     -0.300658    0.52711100   -0.40458200
Ge   17.30855000   20.03953000   12.19329000     -1.872282    0.51469800    0.65493600
Ge   22.90028000    2.93908000    2.56119000      0.465118    0.54975000   -0.02462000
Ge    0.16352000    2.93213000   12.19222000     -0.026139    0.18314700    0.26903100
Ge   23.13940000    8.44530000    2.42855000      0.234039   -0.39626600   -0.40212700
Ge    0.06061000    8.56455000   12.48593000     -0.852183    0.82361800    0.56103200
Ge   23.21436000   14.47587000    2.38042000     -0.371309   -0.69055200    0.14934000
Ge   23.11426000   14.41006000   12.46353000     -0.683243    0.80387000   -0.88226800
Ge    0.13453000   20.24751000    2.33876000     -0.246720    0.83813200    0.41224300
Ge    0.00634000   20.72844000   12.32720000     -0.955398   -0.58968700   -0.52763300
Se    1.12326000    1.42772000    1.53826000      1.540309   -0.35670900   -0.09196100
Se    1.39628000    1.77157000   10.49816000      0.769945    0.55064500    0.95392100
Se    1.38882000    7.17040000    0.93206000      0.071302    0.46359400    0.78191800
Se    1.50171000    7.30101000   11.10778000      0.630521    0.09401800    0.19787100
Se    1.48459000   12.73258000    1.67340000      0.226751    0.57990300   -0.10578800
Se    1.23973000   13.37744000   10.81994000      0.009403   -0.64361800    0.03001300
Se    1.82166000   18.88641000    1.42010000      0.120294   -0.22079600   -0.30898900
Se    1.12324000   19.11872000   10.92195000      1.323849    0.53591400    0.37077700
Se    7.56527000    1.39843000    1.09867000     -0.543511   -0.47009700   -0.04688400
Se    6.90480000    1.73842000   10.80298000      1.365095   -0.69453600   -0.27750300
Se    7.20961000    6.85797000    1.38306000      0.506753    1.16053800    0.59887700
Se    7.24632000    7.24369000   10.98050000      0.130010   -0.15591500   -0.11361900
Se    7.32454000   13.19056000    1.42600000      0.251283   -0.32595300    0.19961100
Se    7.37708000   13.37347000   10.97708000     -0.264178   -0.22700100   -0.17065700
Se    7.49386000   18.39540000    1.64423000     -0.792200    0.21054100   -0.63630400
Se    6.99747000   18.75585000   10.54381000      0.982347    0.44685700    0.67061500
Se   12.81980000    1.79349000    1.03511000      1.040916   -0.67084100   -0.64504400
Se   12.84645000    1.92992000   10.79043000      1.140589    0.42038200    0.65642800
Se   13.21760000    6.96463000    1.13481000     -0.012921    1.07107400    0.69430700
Se   13.16860000    7.53582000   10.65492000     -1.063299   -1.01986600   -0.32149700
Se   13.20851000   13.43028000    1.38514000     -0.534446    0.03733500   -0.31715100
Se   12.93750000   13.02519000   10.67296000     -0.022380   -0.47185100   -0.07816100
Se   13.11406000   19.26417000    1.19339000      0.114529   -0.03924100   -0.02377500
Se   12.97765000   18.90884000   10.78792000      0.596696    0.36300200    0.65796700
Se   18.94013000    1.51039000    1.24759000     -0.347851    0.07441800    0.00580000
Se   18.92938000    1.43646000   11.41586000     -0.031725    0.00738200   -0.18542500
Se   19.00127000    6.81233000    1.34645000     -0.417335    0.34297700   -0.25104400
Se   19.19919000    6.96584000   10.92177000      0.226200    1.81997800    1.39576000
Se   18.63990000   13.08569000    1.20240000     -0.012062   -0.18641700   -0.35786500
Se   18.86860000   12.67093000   11.04765000      0.325138   -0.07129100   -0.38114800
Se   18.93378000   18.74396000    0.86795000      0.218902    0.89310800    0.56159700
Se   18.84830000   18.64454000   11.31467000      1.276668   -0.86060000   -0.62222200
Se    4.23150000    3.99272000    1.27456000      0.066868    0.30586600   -0.19899600
Se    4.25462000    4.56862000   10.95238000     -0.570334    0.72750600   -0.85475800
Se    4.60338000   10.22200000    1.37988000     -0.746095   -0.81341200    0.16075000
Se    4.60471000   10.36061000   11.26140000      0.409661   -0.47791100    0.42791400
Se    4.59215000   15.43738000    0.91541000     -1.369141    1.33059300   -0.82199500
Se    4.16816000   15.99289000   11.06687000      0.160781    0.04728100   -0.25641900
Se    4.67628000   21.58183000    1.27425000      0.520139   -0.05924100    0.14526700
Se    4.13581000   21.73388000   10.63061000      0.051914   -0.09884100    0.67465100
Se    9.97400000    4.60601000    1.38091000      0.383422    0.57087000   -0.84208400
Se    9.94403000    4.29359000   10.72443000      0.454905    0.87823500   -0.04030900
Se   10.39941000   10.39381000    1.43003000     -0.342585   -1.19431300    0.63973000
Se    9.96200000   10.03730000   10.70244000      0.911561    0.00368800    0.18356100
Se   10.19983000   16.48431000    1.39884000      0.269184   -0.17743600   -0.05380000
Se    9.96143000   15.88963000   10.61355000      1.176896   -0.27982900    0.78643300
Se   10.11556000   21.80693000    1.76468000     -0.758712    1.31459900   -1.38017300
Se   10.28921000   21.97002000   11.00196000      0.315167   -0.25403900    0.20837400
Se   15.80926000    4.50141000    1.27134000      0.356784   -0.67902800    0.00242000
Se   16.18142000    4.37128000   11.13425000     -0.549631    0.28247900   -0.43744800
Se   15.81502000   10.00893000    0.90257000      0.593778   -0.42536500    0.31468800
Se   16.03102000    9.77837000   11.17690000      0.010017    0.41336900   -0.69233400
Se   16.04386000   16.24084000    1.19943000     -1.700313    1.26425900   -1.56765100
Se   15.96118000   15.82532000   11.08066000      0.260143   -0.87789300    0.37585800
Se   16.01593000   21.73110000    0.95077000      0.304163    0.17438900    0.30217500
Se   15.90095000   21.60427000   10.91714000      0.676331    0.43822600   -0.19190300
Se   21.70486000    4.34412000    1.16864000     -0.607923    0.23375200   -0.25924800
Se   21.82755000    4.31131000   11.06554000     -0.090869    0.22577300    0.17625400
Se   21.77634000   10.15115000    1.51029000      0.002829    0.10610900   -0.58821400
Se   21.79910000    9.96655000   11.13606000     -0.024170   -0.09132900    0.24307200
Se   22.20017000   15.88685000    0.76294000     -0.127518    0.27061600   -0.11152000
Se   21.68800000   16.24050000   11.42678000      0.453904   -0.11866200   -0.32819900
Se   21.86589000   21.60735000    0.97633000      0.002377   -0.23886900    0.56140100
Se   21.71485000   22.30143000   11.26638000     -0.161430   -0.69804900    0.26885500
Se    1.24571000    4.53743000    8.74896000      0.809870   -1.17798100   -0.98735900
Se    1.34190000    4.28192000   18.09098000      0.267944    0.12378300    0.19220600
Se    1.22914000   10.00163000    8.52182000      0.612032    0.69358400   -0.20594400
Se    1.87800000   10.14499000   18.71083000      0.315480   -0.39304000   -0.69328000
Se    1.19174000   16.05632000    8.53395000     -0.199606   -0.16804100    0.46649500
Se    1.90870000   16.25236000   18.01301000      0.290760   -1.02198700   -0.04563100
Se    1.32314000   22.08831000    8.85225000      0.177876   -1.17857700   -0.51093800
Se    1.06055000   21.79150000   17.84572000      0.820781    0.87285100    0.74820600
Se    7.06203000    4.50253000    8.06920000     -0.655874   -1.39721000    0.80895700
Se    7.25852000    4.30412000   18.60976000     -0.111124    0.38483500   -0.38481400
Se    7.25911000   10.12720000    8.45631000     -0.876853    0.80232600    0.85838200
Se    7.78094000   10.32258000   18.52998000      0.468967   -0.88762900   -0.50382400
Se    6.87269000   15.97572000    8.18340000     -0.225041   -0.08219300    0.51262700
Se    7.57220000   15.71634000   18.07067000     -0.233110    1.09568100    0.19933700
Se    7.26272000   21.94242000    9.16889000     -0.428830    0.52963800   -0.70083800
Se    7.68472000   21.59601000   18.11678000      0.170280   -0.11791400   -0.27202500
Se   13.11293000    4.39050000    8.30937000      0.784884    0.39072300   -0.35486200
Se   12.93269000    4.34999000   18.27064000     -0.256801    0.11918300   -0.13993700
Se   13.08055000   10.30631000    7.96472000     -0.216677    0.13735300    0.27557700
Se   13.18759000   10.30385000   18.76726000      0.209482   -0.49072100   -0.43900600
Se   13.02636000   15.62082000    8.54008000      0.176272    0.91858600    0.03276700
Se   12.49789000   16.28382000   18.06188000     -0.824278   -0.90911500    1.11209600
Se   13.47731000   21.90724000    8.75615000      0.566562    0.20294000   -0.42561800
Se   12.87694000   22.00110000   18.57228000      0.121518   -0.04061800   -0.23294300
Se   19.25105000    3.98919000    8.73927000     -0.166529    0.86800000   -0.56059800
Se   19.00380000    3.94849000   18.32550000      0.154045   -0.13638300   -0.29917500
Se   18.99411000    9.80803000    8.45261000      0.291815    0.01483500   -0.43387300
Se   18.63876000   10.17962000   18.45963000      0.494546   -0.52713000   -0.01727200
Se   19.18713000   15.84305000    8.69380000      0.436075    0.75581700   -0.65083300
Se   19.07372000   16.20163000   18.25911000      0.994974   -1.02442600   -0.82730500
Se   19.11828000   21.62801000    8.97289000     -0.759587    0.34089800    0.19957200
Se   18.78835000   21.84126000   18.54471000      0.938851    0.13289900   -0.75698100
Se    4.28510000    1.45911000    8.15920000      0.068520    1.45909600   -0.43367800
Se    4.67317000    1.14771000   18.54519000     -0.401777   -0.40519600   -0.22964100
Se    4.34875000    7.26446000    8.24757000      0.112900    1.05340500    0.32016100
Se    4.38621000    7.34186000   18.49510000     -0.077812    0.19278100    0.02992600
Se    3.95987000   12.89663000    8.91860000      0.094049    0.00436600   -0.79156100
Se    5.00836000   12.82006000   18.10463000     -0.232932    0.85982700    0.26380400
Se    4.09370000   18.94840000    8.32772000     -0.190910    0.43009700    0.01418500
Se    4.89417000   18.90900000   18.32512000     -0.155987   -0.39059400   -0.09237000
Se   10.04644000    1.44983000    8.82304000      0.779688    0.57258700    0.19237300
Se    9.99836000    1.57118000   18.05371000     -0.053628    0.96862700    0.10438900
Se   10.16578000    7.10106000    8.51782000     -0.872324    0.27601600   -1.02814200
Se   10.10938000    7.45542000   18.25865000     -0.185489   -1.03016400   -0.34261700
Se    9.91831000   12.98257000    8.30863000      1.297561    0.88739300    1.04592300
Se   10.42047000   13.17613000   18.28664000     -0.549297    0.39599700   -0.46355900
Se   10.18669000   18.81279000    8.50717000     -0.062606   -0.40063900   -0.23713300
Se    9.85052000   19.13681000   18.10150000      0.403653   -0.21206400    0.31421700
Se   16.54543000    1.59458000    8.43966000     -0.077488    0.64316800    0.72056000
Se   15.96626000    1.58727000   18.16343000     -0.274986   -0.03141000   -0.06423400
Se   16.42969000    7.15686000    8.45136000     -0.114149   -0.02047000    0.29218100
Se   16.20372000    6.98800000   18.15157000     -0.165224   -0.16813600    0.18700900
Se   15.96196000   12.76667000    8.69501000      0.927135    0.33198900    0.69077700
Se   15.75359000   13.22577000   17.99506000      0.494809   -0.25151400    0.46304600
Se   16.22440000   18.54065000    8.92927000     -1.021738    0.40456800   -1.02534800
Se   15.97633000   18.64733000   17.75978000     -0.452506    1.19201300   -0.04156100
Se   21.42361000    1.46952000    8.26903000      0.598304   -0.01956600    0.50493700
Se   21.84137000    1.53831000   18.39094000      0.207869    0.50637000    0.30025500
Se   21.47420000    7.19286000    8.85370000      0.769424    0.91813100   -0.26392800
Se   21.53200000    7.13127000   18.55309000     -0.177955    0.26619600   -0.64965900
Se   21.66160000   12.80405000    8.27611000      0.083736   -0.13456400    0.64314700
Se   21.99968000   13.02276000   18.46657000      0.207787   -0.65294600    0.27600900
Se   21.91108000   19.24546000    8.37248000     -0.472728   -0.60633700    0.03095100
Se   22.11068000   19.17415000   18.33945000     -0.141713   -1.45694500   -0.35991100
Se    1.21733000    1.48752000    5.82933000     -0.083485    0.19399200    0.22191400
Se    1.62558000    1.60153000   15.97482000     -0.065093    0.31528900   -0.60998000
Se    1.39690000    7.43703000    5.90317000     -1.703738   -1.18696400    1.70949000
Se    1.36335000    7.28214000   15.91945000      0.647113   -0.31025400    0.27498300
Se    1.46809000   12.64171000    6.08074000     -0.046107    0.81311900   -0.43082000
Se    1.63985000   13.07671000   16.15134000     -0.132664   -0.13800800    0.03366300
Se    1.29322000   18.82095000    5.75534000     -0.237272   -0.53014700    0.82581300
Se    1.60626000   18.86314000   15.79584000     -0.056457    0.92906600   -0.90368000
Se    7.30812000    1.22176000    6.07159000     -0.151498    0.63705300   -0.49381600
Se    6.95729000    1.43757000   15.84339000     -2.274534    1.46439300   -1.14441500
Se    7.35964000    7.00887000    5.57918000     -0.430074   -0.26583100    0.53590600
Se    7.68563000    7.20558000   15.73255000     -1.432360   -0.37862300    0.63461600
Se    6.98332000   12.87757000    5.90964000      0.219162   -0.16674900    0.18618800
Se    7.41276000   12.88324000   15.68646000     -1.414436    0.24456900   -0.24137400
Se    7.44167000   19.14115000    6.30684000     -0.420888   -0.56653000   -0.08338300
Se    7.17115000   19.01858000   15.44498000      0.544320   -0.35707500    0.45129200
Se   13.35919000    1.36582000    6.37266000      0.470423   -0.85276900    0.20572800
Se   13.05383000    1.53631000   15.87431000     -0.415206   -0.10675600   -0.03185300
Se   13.12926000    7.25011000    5.61465000      1.107622    0.10295000    0.94302900
Se   13.24744000    7.61546000   16.06339000     -1.167744   -1.07562100    0.71212800
Se   13.19209000   13.21392000    5.63627000     -0.180398    0.55105800   -0.09025100
Se   12.66477000   13.09165000   15.95168000     -0.295932    0.15029400   -0.43087700
Se   13.51074000   18.63538000    6.16875000      0.294984   -0.08505300    0.76430900
Se   12.88309000   18.90561000   15.84589000      0.304524    0.45796000   -0.16183500
Se   18.66729000    1.03512000    5.96756000     -0.266170    1.21474200   -0.78727900
Se   19.01075000    1.29011000   15.72458000      0.146081    0.14246700    0.18486700
Se   18.64378000    7.18959000    6.18802000      0.055701    0.06690600   -0.32450900
Se   18.69639000    6.83735000   15.87750000      0.619265    0.50112000    0.34615700
Se   18.66830000   13.11960000    6.02278000      0.859848   -0.35832800    0.02649500
Se   18.92596000   12.77157000   16.09402000     -0.164437   -0.02286700    0.20216500
Se   18.69357000   19.19452000    6.26122000      0.133935    0.18062200   -0.37925600
Se   18.81909000   18.86260000   15.78553000     -1.282882   -0.32288700   -0.21619100
Se    4.04002000    4.64995000    5.98804000      0.457046    0.37456900    0.96920300
Se    4.52079000    4.21553000   16.23785000     -0.199731    1.46332700    0.74768700
Se    4.43728000   10.15974000    5.74519000      1.026416   -0.28707100    0.11268900
Se    4.49215000   10.09119000   16.08599000     -0.388101   -0.58002800   -0.53249300
Se    4.09481000   15.89670000    6.15166000     -0.166150    0.06584700    0.14585800
Se    4.57617000   16.05219000   15.70439000      0.298238   -0.10731600   -0.09761000
Se    4.29377000   21.76789000    6.12963000     -0.776687    0.56378900    0.61171300
Se    4.22982000   21.70313000   16.05137000      1.637190    0.39860200    0.35845300
Se   10.33129000    4.36703000    5.80330000     -0.403177   -0.26794400    0.43961800
Se    9.95877000    4.22462000   15.63247000      0.857087   -0.13388400    0.70183200
Se   10.07835000   10.05393000    6.20166000      0.735986   -0.10457200   -0.31520200
Se   10.63968000   10.36255000   15.79985000     -0.412065   -0.20614700    0.03728300
Se    9.99697000   15.68535000    6.29327000      0.983726    0.89969400    0.54038400
Se   10.16399000   15.68029000   15.79628000     -0.419992    0.43386600   -0.28157300
Se   10.30035000   21.70744000    6.96035000     -0.493427    0.59335300   -0.64098100
Se   10.19905000   22.21959000   15.47065000     -0.508290   -0.04017700    0.42566700
Se   15.95820000    4.17104000    6.47029000      0.344559    0.02330500   -0.73836700
Se   16.01276000    4.22584000   15.78737000     -0.809196    0.79573800    0.31305300
Se   16.02717000   10.38537000    6.06510000      0.802004   -1.26789600   -0.77994900
Se   15.85396000   10.44339000   15.87991000      0.046562    0.15345800    0.29037100
Se   16.32400000   15.74095000    6.09155000      0.393371    0.42353000    0.60250300
Se   15.71051000   15.53787000   15.84437000     -0.287967    1.24068700    0.49381200
Se   16.51775000   21.82857000    5.91821000      0.091044   -0.45570700   -0.25919600
Se   15.96956000   21.78058000   16.13919000     -0.413276   -0.33179500   -0.58383300
Se   21.68667000    4.42659000    5.84356000     -0.098058    0.75746900    1.15203600
Se   21.89259000    4.47380000   15.89717000      0.590935   -1.29607700   -0.89808000
Se   21.63703000    9.82034000    6.07239000      0.526485   -0.65334600   -0.75871700
Se   21.55387000    9.91492000   16.38578000      1.388177   -0.69241900   -0.53164700
Se   21.62276000   16.44750000    5.72136000     -0.551884   -0.43093000    0.54247200
Se   21.78442000   15.75865000   15.65295000     -0.946842    0.55042200    0.29846800
Se   21.68359000   22.00540000    5.70784000     -0.162467   -0.24989200    0.97410200
Se   21.40007000   21.56363000   16.28811000      1.176985   -0.31255800   -0.73652500
Se    4.20640000    1.43657000    3.74097000      0.368728   -0.01263300   -0.13741800
Se    4.55030000    2.03123000   13.36155000      0.172167   -1.36685100   -0.25069800
Se    4.41908000    7.05215000    3.94312000      0.043026    1.04643400   -0.84061500
Se    4.29557000    7.50764000   13.63345000      0.307062   -0.87792200   -0.64357600
Se    4.29985000   13.18668000    3.69756000      0.534705   -0.92520100   -0.43454500
Se    4.40624000   13.11723000   13.35288000     -0.390637   -0.80755500    0.57350800
Se    4.25475000   18.60150000    3.61182000      0.122558    0.07838200    0.56176800
Se    4.29800000   19.27143000   13.23116000      0.894611   -1.07009000   -0.79105800
Se    9.93885000    1.64192000    3.22573000      1.003673   -0.02082600    0.57297500
Se    9.65690000    1.72008000   12.96038000      0.417436   -0.11318600    0.41646300
Se   10.20811000    7.31530000    3.57190000      0.181815   -0.11540100   -0.10142100
Se   10.48260000    7.18289000   13.21114000     -0.915972    0.35111600    0.92428900
Se   10.53029000   13.26286000    3.62692000     -0.714859    0.76821200    0.57925600
Se    9.96727000   12.96412000   12.95981000      0.339327   -0.08681100    0.13115900
Se   10.65544000   19.01176000    4.20210000     -0.248112    0.19523600   -0.21797800
Se    9.85549000   18.95482000   13.00305000      0.149916    0.34961500    0.72846700
Se   15.82699000    1.46604000    3.56001000      0.322107    0.20829800   -0.07308300
Se   15.67640000    1.50833000   13.35303000      0.358678   -0.39594200   -0.28156400
Se   16.00566000    7.30096000    3.49984000      1.234349   -0.71148700   -1.18284100
Se   16.41487000    6.93982000   13.60725000     -0.995039    0.91007700    0.43354300
Se   15.85562000   13.30816000    3.26059000     -0.956866   -1.14119200    0.90297400
Se   15.83090000   12.66268000   13.40365000     -0.294015   -0.55592700   -0.06969300
Se   16.14740000   18.90015000    3.46239000     -0.385019    0.06150100    0.59367700
Se   15.66764000   18.82864000   13.59964000      0.270426    0.61434600   -0.18479600
Se   21.29947000    1.64694000    3.61150000      0.153518   -1.12719300    0.02521000
Se   21.95521000    1.42718000   13.47813000      0.454536   -0.15726800   -0.42623100
Se   21.91234000    6.96815000    3.85301000     -0.277719   -0.32700600   -0.36526700
Se   21.82123000    7.07615000   13.79087000      0.169604    0.59500500   -0.25171000
Se   21.56575000   13.02084000    3.64145000      0.679254   -0.03355400   -0.82417000
Se   21.63748000   12.83109000   13.41961000     -0.245924    0.06700800    0.12150900
Se   21.60573000   18.98332000    3.32332000     -0.229934   -0.57871800    0.26021000
Se   21.90437000   19.25408000   13.64609000     -0.315064   -0.37003800   -0.02402300
Se    1.35850000    4.34095000    3.53839000     -0.374796    0.31579500   -0.14259900
Se    1.53706000    4.46373000   13.42593000      0.025992    0.07557300    0.29809800
Se    1.32344000    9.92794000    3.61864000     -0.559173    1.30989100   -0.78756800
Se    1.17947000   10.30096000   13.82197000      0.039810   -0.39984400   -0.41716300
Se    1.00637000   15.95963000    3.85495000      1.012362   -0.47449700    0.29267400
Se    1.41061000   15.84570000   13.47956000      0.736436    0.01240500    0.81353600
Se    1.58717000   21.60993000    3.78549000     -0.843270    0.82909700   -0.99356000
Se    1.37831000   22.03562000   13.63500000      0.314736    1.09948900    0.04196100
Se    7.31889000    4.16264000    3.45730000     -1.017091    0.61148600    0.11144900
Se    7.22362000    4.74942000   13.47609000     -0.093626    0.26615400   -0.23777200
Se    7.14677000   10.09564000    3.69532000      0.799742    0.60088400    0.20490500
Se    7.42268000   10.04340000   14.07161000     -0.383107    0.23895700   -1.11438600
Se    7.49410000   15.93203000    3.65712000      0.120859    0.77642800    0.43624800
Se    7.22362000   16.05708000   13.53515000      0.127306    0.01919400   -0.12378000
Se    7.38583000   21.73145000    3.91259000     -0.110183   -0.99429700   -0.06655800
Se    7.55606000   22.15883000   13.16528000     -1.102841   -1.00518200   -0.71551500
Se   13.13670000    4.50479000    3.68301000      0.239166   -0.30004700    0.31227500
Se   12.71925000    4.74080000   13.33805000      1.798620    0.30111700    1.38797100
Se   13.17691000   10.20236000    3.56170000      0.418064    0.66204300    0.30662100
Se   13.46031000    9.94121000   12.94753000      0.696640    0.57740900    1.27011700
Se   13.12290000   16.53688000    3.88013000      0.461571    0.00630700    0.13282300
Se   12.90642000   15.81480000   13.45764000      0.442135   -0.23067600   -0.11514200
Se   13.49493000   21.77813000    3.56823000      0.921194    0.95017300    1.07603400
Se   13.14348000   21.91270000   13.26383000     -0.428438    0.30025200    0.08650200
Se   18.61137000    4.59469000    3.84462000     -0.224464   -1.22730200   -0.42220900
Se   18.94532000    4.44317000   13.73520000     -0.474967   -0.63302700   -0.50743700
Se   18.58670000   10.03046000    3.64415000      1.445482    0.15494300    0.68122000
Se   18.94471000   10.07844000   13.56760000      0.275456   -0.64506300    0.29429500
Se   18.68515000   16.16985000    3.53491000      0.861399   -1.03630500    0.60492000
Se   18.31447000   15.58028000   13.76260000      0.371095   -0.29831700   -0.61703900
Se   18.83965000   21.89797000    3.54916000     -0.308066   -0.37415900   -0.49985400
Se   18.59325000   21.68980000   13.24182000      0.361730    0.57130300    0.54331600
