384
23.23808000 23.23808000 19.51320000
Ge    5.74395000    5.79739000    9.56391000     -0.136886    1.05915400    0.05944000
Ge    5.52983000    5.72007000    0.24642000      0.582694   -0.80491800   -0.45017100
Ge    5.85514000   11.87693000    9.84677000      0.712811   -1.65785200    0.07159400
Ge    6.12802000   11.50535000    0.21559000      0.877058    1.57450900   -0.52821800
Ge    5.43224000   17.42757000    9.49340000     -0.139273   -1.37709500    0.63050800
Ge    6.07194000   17.09818000    0.00559000      0.488478    0.08662600   -0.24896000
Ge    5.45293000    0.21940000    9.75841000      0.272079   -0.62892200   -0.06038200
Ge    6.30465000   22.83663000    0.02262000     -1.174264    0.76347800    0.52189100
Ge   11.59620000    5.64254000    9.66652000      1.438323    1.19504500   -0.61864300
Ge   11.44075000    5.92811000   19.44418000      0.624853   -0.37861700    0.43290200
Ge   11.51952000   11.44065000    9.43569000     -0.316593    0.31757300   -0.06205300
Ge   11.74862000   11.84463000    0.21677000     -0.431397    1.17479400    0.55113900
Ge   11.62988000   17.36974000    9.69967000     -0.495113   -1.10160000   -0.31102500
Ge   11.52568000   17.96406000    0.05656000     -0.806648   -0.24915200   -0.44424900
Ge   11.80188000    0.03544000    9.80393000     -0.114289    0.47613600   -0.36028700
Ge   11.28443000    0.32011000    0.05104000      0.135467   -1.32250600    0.56918600
Ge   17.78455000    5.54068000    9.80049000     -1.007933   -0.66972400   -0.54866900
Ge   17.52913000    5.36277000   19.41534000     -0.322554    1.39030900    0.32292600
Ge   17.58814000   11.07551000    9.75442000     -1.219476    0.86440400    0.12965600
Ge   17.11236000   11.71356000   19.30591000     -0.321939    0.96725100    0.64444300
Ge   17.58764000   17.01158000   10.00502000      1.030575    0.36297000   -0.13997400
Ge   17.43116000   17.45004000   19.15971000     -0.467464    0.65608500    0.36357500
Ge   17.54553000    0.14709000    9.99444000      0.474425   -1.57986200    0.49932200
Ge   17.46870000    0.23488000   19.39488000     -1.578803   -0.29904700    1.37400300
Ge   23.16776000    5.94545000    9.99282000     -0.544605    0.73001400    0.31973200
Ge   23.11036000    5.70738000   19.33532000      0.694082   -0.08767100    0.84973400
Ge   23.14848000   11.55885000    9.94862000     -0.154514   -0.15174700   -1.43738400
Ge    0.21898000   11.38196000    0.13583000     -1.399263    1.15866200    0.52989300
Ge   22.99274000   17.59192000    9.72909000     -0.404091   -0.09365100    0.81606300
Ge    0.54096000   17.57612000   19.43957000     -0.908119    0.07478000   -0.48908000
Ge   22.96513000    0.37175000    9.79625000     -0.842361   -0.49618700   -0.82486400
Ge    0.07990000   23.19632000    0.04715000      0.007960    0.46363000   -0.68979600
Ge    2.59422000    5.98038000    7.49848000      0.282357    0.22914400   -1.39405000
Ge    2.85929000    5.92603000   17.24087000      0.705780   -0.34080800   -0.35953000
Ge    3.10297000   11.37356000    7.21028000     -1.683864    0.17232500    1.46722300
Ge    3.19540000   11.60875000   17.25890000     -0.398763    0.02340200    0.13269400
Ge    2.62870000   17.45780000    7.28307000     -0.650287   -0.51529000   -0.98322500
Ge    3.34922000   17.72105000   16.82594000      0.051785    0.07290000    1.12070500
Ge    2.51732000    0.19000000    7.31621000      0.819150   -1.47135900   -0.15435900
Ge    2.89044000    0.05897000   17.22615000      0.161020   -0.64966100    0.15427100
Ge    8.76923000    5.69718000    7.00920000      0.350649    1.40751500    0.91368200
Ge    8.70265000    5.64678000   17.11087000      0.450719   -0.17699400    1.22468800
Ge    8.59166000   11.59362000    7.14164000     -0.709262   -0.36289500    0.23108900
Ge    8.93874000   11.72974000   16.91020000      1.090123   -0.83995400    1.30768600
Ge    8.63949000   17.34393000    7.32925000     -0.143418    0.37301900    0.26194600
Ge    8.63591000   17.46304000   16.82176000      0.192202   -0.51218100   -0.15053500
Ge    8.54432000    0.07395000    7.70335000      1.285636   -1.45183900    0.25702400
Ge    8.44915000    0.20194000   16.84913000      2.762942   -2.44198100    0.88456300
Ge   14.70218000    6.10742000    7.12943000     -1.506233   -1.34020400    0.42058600
Ge   14.42462000    5.73827000   17.04174000      1.269046    0.31963600   -0.28197900
Ge   14.62244000   11.97717000    6.98637000     -0.481995   -0.93525400    1.12122900
Ge   14.13057000   11.74503000   17.09649000      1.206710   -0.47565600    0.00340700
Ge   14.87949000   16.90896000    7.66516000     -0.309964    0.92562500   -0.56179900
Ge   14.20099000   17.25275000   16.97182000      2.042082    0.51827300   -1.10186400
Ge   15.35272000   23.17522000    7.41867000     -2.733237    0.26361400   -0.22319900
Ge   14.39220000   23.22609000   17.17305000      0.502521    0.79324100   -0.12455400
Ge   20.23181000    5.84046000    7.34171000      0.224941   -1.37077200   -0.17097700
Ge   20.36089000    5.60441000   17.15890000     -1.146864    0.54496800    0.24899200
Ge   20.22842000   11.40420000    6.94049000     -0.595190    0.97696800    1.52739600
Ge   20.33616000   11.51369000   17.56471000      0.213668    0.97525000   -0.55941500
Ge   20.23439000   17.77918000    7.28068000      0.568622   -1.22055200    0.36302600
Ge   20.51439000   17.68657000   16.83714000      0.544919   -0.47463500    0.84053000
Ge   20.05640000   22.96535000    7.31626000      1.280813    0.34651500   -0.32623100
Ge   20.34472000    0.09027000   17.36350000     -0.456406   -0.25434700   -0.01793600
Ge    2.86223000    3.04364000    4.89261000     -1.053096   -0.95417000   -0.80653600
Ge    3.11258000    3.17805000   14.75296000     -1.074803   -0.52433200    0.03989600
Ge    2.87357000    8.69931000    4.78738000      1.561620   -0.67195700   -0.16992500
Ge    2.77356000    8.85470000   14.80847000      0.918305    0.54387400    0.87717600
Ge    2.70881000   14.38068000    4.83925000     -1.040436    0.95781500    1.30590900
Ge    3.06368000   14.52613000   14.84355000     -1.022088   -0.53015400   -1.13514500
Ge    2.96667000   20.22402000    4.99964000      0.107333   -0.62047000   -0.97209800
Ge    3.01207000   20.49390000   14.54189000     -1.814235    0.58597900    0.75856200
Ge    8.70562000    2.95016000    4.88527000      0.357522   -1.63391600    0.14799400
Ge    8.30033000    2.92056000   14.53641000      1.199082    0.59395200   -0.56178200
Ge    8.74409000    8.66768000    4.81212000      0.591624    1.02929300   -0.25712900
Ge    9.18436000    8.63577000   14.81444000      1.346332    0.51861500   -0.81916100
Ge    8.58900000   14.38358000    5.06875000      0.499529   -0.95476700   -1.53036600
Ge    8.63581000   14.34327000   14.39489000      1.324057    0.84021400    0.10559000
Ge    9.04236000   20.46795000    5.28774000     -0.064066    0.36751300   -0.02429100
Ge    8.75387000   20.56845000   14.51179000     -0.411077   -0.36609000   -0.64501700
Ge   14.50864000    2.88466000    4.94947000      0.063996    0.03309800    0.30210700
Ge   14.42439000    3.01154000   14.53896000     -0.667417    0.56079700   -0.21396300
Ge   14.77431000    8.85818000    4.60799000     -0.350670   -0.15311800    0.68753700
Ge   14.80929000    8.63145000   14.78079000      0.286968   -0.41194800   -1.65036600
Ge   14.71428000   14.88280000    4.68223000     -0.529857   -0.17998600   -0.02164800
Ge   14.36252000   14.13785000   14.52877000     -0.598048    0.45028200   -0.07195800
Ge   14.75701000   20.29028000    5.05906000      0.641956   -0.16732100   -0.97801900
Ge   14.30902000   20.61114000   14.78720000      1.421388   -1.25044000   -0.17764900
Ge   20.08019000    3.02588000    4.97635000     -1.660646    0.38560500    0.49712000
Ge   20.47426000    2.84761000   14.59737000      0.220765    0.59469500    0.84960200
Ge   20.21849000    8.40457000    4.72541000     -0.545259    0.68971800    0.14815500
Ge   20.19352000    8.49864000   15.03789000      0.141087    0.21480300   -0.75401900
Ge   20.26850000   14.50915000    4.81957000     -1.121618    1.29759600    0.02652400
Ge   20.05299000   14.21590000   14.66067000      0.759784    1.01993100    0.15144700
Ge   20.22557000   20.37840000    4.74935000      0.426437    0.19200500    0.19513900
Ge   20.09475000   20.42567000   14.64880000     -0.029997    0.53203200   -0.48907700
Ge    5.86154000    2.61325000    2.35412000      0.633058   -0.20336900    0.29180500
Ge    5.88910000    3.44119000   12.00432000     -0.236856   -0.49408200    0.83126200
Ge    5.88442000    8.58437000    2.60148000     -0.646395   -1.45842400   -0.48641100
Ge    6.10673000    8.69629000   12.44662000     -1.346674    1.09999000    0.21965700
Ge    5.83266000   14.63587000    2.62681000      0.265272   -0.46631900   -0.43021100
Ge    5.81168000   14.59410000   12.29497000     -0.856361    0.72869100   -0.82872700
Ge    5.88855000   20.01699000    2.65066000      1.215157   -0.11632400    0.11014700
Ge    5.98567000   20.47133000   11.88047000     -0.603094    1.03132700    0.45093700
Ge   11.60917000    3.18202000    2.33144000     -1.067642    0.36196700    1.85531900
Ge   11.44026000    3.31482000   12.26478000     -1.024113   -2.07339300   -1.09563400
Ge   11.89681000    8.63876000    2.45779000     -0.389891   -0.12517400   -0.89024500
Ge   11.63860000    8.84935000   12.02314000     -0.244522   -0.70584400   -1.06801500
Ge   11.79069000   15.02958000    2.57210000     -0.405196   -0.24572500   -0.04909900
Ge   11.58763000   14.48040000   12.03544000     -1.291865   -0.19292100   -0.80428700
Ge   11.73772000   20.57946000    2.76247000      0.632760   -1.55582500    0.04211600
Ge   11.57423000   20.30401000   12.32303000      0.610319    0.40782500   -1.86563600
Ge   17.29807000    2.94907000    2.29420000      0.243826    0.24721500    1.29542800
Ge   17.41425000    2.94387000   12.57120000      0.630418   -0.53845600   -0.48900200
Ge   17.63142000    8.68152000    1.97747000     -1.399910   -0.53816100    0.27444700
Ge   17.65999000    8.46399000   12.25693000      0.347434   -0.05785900    0.11661100
Ge   17.31490000   14.73475000    2.25627000      1.899487    0.07541100    0.18304400
Ge   17.33118000   14.02767000   12.13611000     -0.624415    1.55569800    0.59010200
Ge   17.59413000   20.31869000    2.19338000     -0.598860    0.30134400   -0.31897900
Ge   17.21885000   20.04353000   12.13347000     -0.719724   -0.21521800    0.88198300
Ge   22.88966000    2.97758000    2.56140000      0.526889    0.07462700    0.09998400
Ge    0.14865000    2.93431000   12.18110000      0.351816    0.68146000    0.44453300
Ge   23.12866000    8.43505000    2.42540000      0.854254   -0.38813700   -0.15527500
Ge    0.06475000    8.54524000   12.50777000     -0.886077    1.22649900    0.38035600
Ge   23.18969000   14.48787000    2.36919000     -0.118844   -0.65065600    0.33732500
Ge   23.11021000   14.45396000   12.46441000     -0.834152    0.34669300   -0.81529800
Ge    0.13276000   20.24841000    2.36076000      0.052002    0.77598600   -0.00718400
Ge   23.15885000   20.73032000   12.34158000      0.165388   -0.27007000   -0.52623900
Se    1.13062000    1.44811000    1.58541000      1.297885   -0.55343800   -0.36569400
Se    1.37710000    1.81884000   10.46994000      0.849274    0.36793700    0.93505500
Se    1.43199000    7.15371000    0.95095000     -0.609597    0.21412100    0.50449900
Se    1.50033000    7.33469000   11.12997000      0.513553   -0.36155200   -0.15379700
Se    1.46881000   12.73970000    1.64931000      0.150984    0.51872200   -0.10843700
Se    1.22211000   13.38986000   10.80887000     -0.007716   -0.51339600    0.16955900
Se    1.85163000   18.90093000    1.41275000     -0.202444   -0.16198200   -0.18936100
Se    1.12920000   19.13897000   10.94829000      0.727772    0.40227900    0.27749100
Se    7.58095000    1.38303000    1.09838000     -0.824367   -0.38191800    0.09156800
Se    6.93598000    1.73872000   10.81903000      0.932229   -0.40945000   -0.20059600
Se    7.19806000    6.89810000    1.39522000      0.120521    0.71913500    0.35505500
Se    7.24689000    7.22812000   10.98353000      0.371549   -0.54120000   -0.37780300
Se    7.34614000   13.19397000    1.42140000      0.400208   -0.35009400    0.09612800
Se    7.35507000   13.41369000   10.98114000      0.008391   -0.61885400   -0.51520300
Se    7.50890000   18.40349000    1.59550000     -0.956802    0.38749200   -0.38686600
Se    7.04356000   18.73450000   10.57417000      0.850769    0.38394000    0.57555600
Se   12.85000000    1.80553000    1.05407000      1.132253   -0.97006000   -0.92452600
Se   12.83660000    1.94464000   10.74644000      0.758170    0.16785000    0.63688100
Se   13.21266000    6.95463000    1.16654000     -0.387855    0.80925700    0.30488000
Se   13.14841000    7.56940000   10.63423000     -1.105039   -1.10576900   -0.24971600
Se   13.20925000   13.45129000    1.36558000     -0.456539   -0.12542300   -0.48112300
Se   12.91759000   13.01298000   10.69257000      0.212786   -0.36278800   -0.02133000
Se   13.12487000   19.25617000    1.21303000     -0.101176   -0.07406800   -0.08153100
Se   12.99249000   18.91381000   10.74351000      0.431506    0.65857400    0.99537400
Se   18.93995000    1.51908000    1.25926000     -0.394651    0.15758300    0.00034200
Se   18.96419000    1.43010000   11.45332000     -0.249995    0.20320500   -0.06227100
Se   19.00508000    6.81578000    1.36224000     -0.396409   -0.01440700   -0.45972300
Se   19.17137000    6.99510000   10.88846000      0.180214    1.38555900    1.13031000
Se   18.62129000   13.06121000    1.22064000      0.118948   -0.38155800   -0.61748500
Se   18.89130000   12.70468000   11.03762000      0.463576   -0.14075700   -0.36653400
Se   18.94038000   18.74916000    0.90668000      0.214354    0.76247900    0.39344900
Se   18.87201000   18.62115000   11.29245000      0.366848   -0.39673800   -0.26593500
Se    4.26153000    3.95079000    1.27378000     -0.335589    0.61286200   -0.37961400
Se    4.22374000    4.55915000   10.92843000     -0.613150    0.73479200   -0.86758400
Se    4.64189000   10.23760000    1.33798000     -1.434870   -1.09782000    0.58244600
Se    4.58548000   10.36170000   11.29692000      0.828891   -0.38591000    0.13846000
Se    4.53513000   15.45960000    0.86760000     -0.680805    0.96304100    0.08590900
Se    4.12901000   15.96666000   11.03399000      0.625252    0.03090800   -0.20861100
Se    4.67455000   21.55173000    1.31202000      0.286107    0.42994700   -0.29730000
Se    4.16933000   21.75909000   10.68959000     -0.050060   -0.48377000    0.84682200
Se   10.00110000    4.62686000    1.40013000      0.192141    0.15245900   -0.70818900
Se   10.01941000    4.31951000   10.70343000     -0.768576    0.33010800    0.45061900
Se   10.41970000   10.36648000    1.44346000     -0.323868   -0.87296700    0.40868500
Se    9.96719000   10.05710000   10.71917000      0.741618    0.08793700    0.10039000
Se   10.16828000   16.47265000    1.41352000      0.383631   -0.19433900   -0.08803700
Se    9.99337000   15.86931000   10.68285000      1.067640    0.03064300    0.54273100
Se   10.13384000   21.79629000    1.76134000     -0.889513    1.44367800   -1.45107700
Se   10.29457000   21.96901000   11.01620000     -0.015922   -0.55697100    0.36576200
Se   15.79728000    4.46810000    1.24386000      0.221059   -0.30466900   -0.23604700
Se   16.20794000    4.35449000   11.15084000     -0.839869    0.21249000   -0.49583800
Se   15.80523000   10.03219000    0.87341000      0.443033   -0.68479200    0.40500000
Se   16.04201000    9.77622000   11.10216000      0.364534    0.23397200   -0.29583100
Se   16.06107000   16.27518000    1.18711000     -1.601239    0.79642600   -1.13636800
Se   15.94781000   15.80280000   11.07761000     -0.125224   -0.94967800    0.47764400
Se   15.98571000   21.75285000    0.96526000      0.675493    0.33479500    0.20714100
Se   15.88646000   21.62086000   10.89648000      0.535440    0.54957600   -0.28382900
Se   21.67963000    4.33162000    1.15211000     -0.675571    0.47717800   -0.32356200
Se   21.82280000    4.33947000   11.05702000     -0.430422   -0.11905800    0.51884300
Se   21.80666000   10.12382000    1.47846000     -0.235094    0.30237100   -0.64479800
Se   21.78300000    9.92527000   11.13731000      0.250174    0.21689800    0.16566200
Se   22.18847000   15.88551000    0.73553000     -0.244255    0.29074600   -0.06586700
Se   21.69280000   16.28565000   11.44309000      0.328032   -0.19621200   -0.26323600
Se   21.90770000   21.64680000    0.97741000     -0.549490   -0.78134300    0.92187100
Se   21.66465000   22.27526000   11.28173000     -0.191057   -0.27114500   -0.00629300
Se    1.23329000    4.53620000    8.75332000      0.747332   -0.97498400   -0.86246500
Se    1.30097000    4.28997000   18.07852000      0.289658    0.07652700    0.09307300
Se    1.20264000   10.01411000    8.53713000      0.737940    0.58243000   -0.24137200
Se    1.89133000   10.14311000   18.68612000      0.379230   -0.68478200   -0.62993900
Se    1.18706000   16.08969000    8.55401000     -0.048361   -0.38993800    0.29115800
Se    1.93957000   16.24052000   18.03540000     -0.298400   -0.41103700    0.52874300
Se    1.33830000   22.06771000    8.90334000      0.056804   -0.43386900   -0.61412700
Se    1.00457000   21.81475000   17.81277000      0.991560    0.57789100    0.69942100
Se    7.07269000    4.44329000    8.10034000     -0.074858   -0.89033000    0.40441900
Se    7.26507000    4.27949000   18.59478000     -0.079205    0.65229300   -0.49977900
Se    7.26687000   10.13284000    8.44652000     -0.909667    0.85594900    0.86745300
Se    7.75854000   10.33718000   18.54331000      0.658633   -1.02033400   -0.60912300
Se    6.88472000   15.95831000    8.21533000      0.015695    0.09535100    0.29928100
Se    7.54012000   15.69743000   18.07088000     -0.276225    1.08783200    0.34986100
Se    7.23241000   21.95739000    9.14887000     -0.240174    0.12266300   -0.55647700
Se    7.69893000   21.59044000   18.14263000      0.008544   -0.22413100   -0.20824800
Se   13.10636000    4.34860000    8.30682000      0.447930    1.03351300   -0.05956100
Se   13.01013000    4.39056000   18.25063000     -0.885670   -0.47726200    0.42151100
Se   13.08253000   10.31271000    7.96836000     -0.212134    0.08651500    0.28294200
Se   13.18339000   10.36463000   18.74278000      0.602725   -1.16925600   -0.49730800
Se   13.02077000   15.62341000    8.53590000      0.089129    0.93201600    0.06115300
Se   12.51804000   16.28738000   18.09575000     -0.887830   -0.89877300    1.08918500
Se   13.49256000   21.93407000    8.74296000      0.454599    0.10164800   -0.33184300
Se   12.86471000   22.01378000   18.56042000      0.081776   -0.14235000   -0.13958100
Se   19.24143000    3.98914000    8.70728000     -0.208124    0.69445200   -0.45656800
Se   19.01469000    3.95126000   18.32611000      0.237473   -0.36043200   -0.34552100
Se   19.00684000    9.80107000    8.48162000      0.469266    0.13883400   -0.66539300
Se   18.69129000   10.17399000   18.54495000      0.188778   -0.59184700    0.00371300
Se   19.21197000   15.81167000    8.69177000      0.050682    1.07881100   -0.52606400
Se   19.11472000   16.18992000   18.24071000      0.881515   -0.81563100   -0.67487800
Se   19.12667000   21.60710000    8.98798000     -0.702819    0.50567800    0.09175500
Se   18.78579000   21.84946000   18.57521000      1.244106   -0.31399000   -1.01947600
Se    4.29374000    1.46362000    8.15591000      0.109274    1.03989400   -0.20200800
Se    4.67432000    1.13752000   18.53076000     -0.369735   -0.30670900   -0.11754200
Se    4.38859000    7.31268000    8.20383000      0.328991    0.34680700    0.54269000
Se    4.39598000    7.36485000   18.54243000     -0.514872   -0.11729900   -0.39873600
Se    3.94678000   12.89845000    8.94391000     -0.097848    0.24353500   -0.92539600
Se    5.00067000   12.82830000   18.09443000     -0.229744    0.82246100    0.38309300
Se    4.08860000   18.90597000    8.32485000      0.095163    1.17870300    0.10738200
Se    4.90211000   18.86873000   18.33408000     -0.104902   -0.08268500   -0.17970700
Se   10.06266000    1.43440000    8.76917000      0.781993    0.81947800    0.28532100
Se    9.98771000    1.55137000   18.04255000      0.056972    0.93345100    0.15816300
Se   10.15652000    7.13109000    8.50081000     -0.699790    0.04362600   -0.90478000
Se   10.12470000    7.42918000   18.24807000     -0.429664   -0.64804700   -0.50041400
Se    9.97379000   13.01795000    8.30823000      0.763371    0.35589800    0.74760500
Se   10.38342000   13.14159000   18.23975000     -0.138228    0.51719700   -0.02588200
Se   10.19088000   18.79011000    8.47984000     -0.121836   -0.24258000   -0.19653800
Se    9.79717000   19.14621000   18.09112000      0.544868   -0.40121600    0.32067900
Se   16.57114000    1.61390000    8.46815000     -0.248723    0.70267100    0.50746500
Se   16.02595000    1.55004000   18.11615000     -0.391512    0.42360900   -0.12671200
Se   16.38748000    7.13479000    8.42320000      0.231061    0.26357200    0.56555400
Se   16.21622000    6.97149000   18.13354000     -0.067532   -0.07151600    0.19678400
Se   15.99691000   12.75049000    8.74417000      0.661437    0.30865900    0.37512500
Se   15.73837000   13.26715000   17.99794000      0.650722   -0.33080100    0.38932600
Se   16.20347000   18.56456000    8.93016000     -0.704950   -0.09185500   -0.82030100
Se   15.99206000   18.70049000   17.71140000     -0.323911    0.05233100    0.39678500
Se   21.43432000    1.52836000    8.27242000      0.322100   -0.52148000    0.31794300
Se   21.90057000    1.52437000   18.40100000     -0.276499    0.24868100    0.09967900
Se   21.45036000    7.18931000    8.84129000      0.793054    0.75220700   -0.30672700
Se   21.51336000    7.16965000   18.50506000     -0.023756    0.44384100   -0.37107500
Se   21.69598000   12.86435000    8.28094000     -0.122946   -0.49436700    0.47913200
Se   21.98059000   13.04946000   18.48360000      0.098140   -0.95776000    0.20889600
Se   21.95134000   19.24407000    8.33284000     -0.744537   -0.74674000   -0.03304700
Se   22.13826000   19.16609000   18.28185000     -0.204310   -1.25022000   -0.30626900
Se    1.28038000    1.47045000    5.83823000     -0.470069    0.40627500   -0.10565900
Se    1.62923000    1.60489000   16.00531000      0.047636    0.48810900   -0.68885600
Se    1.39035000    7.44488000    5.94299000     -1.079857   -1.00419800    1.50989600
Se    1.34448000    7.28812000   15.91788000      0.461450   -0.37138400    0.21897500
Se    1.41985000   12.64281000    6.06494000      0.370374    0.61274200   -0.25017700
Se    1.65498000   13.05953000   16.12446000     -0.011081   -0.00600400    0.06505200
Se    1.29132000   18.83293000    5.79154000     -0.257429   -0.52644600    0.81269500
Se    1.63376000   18.86114000   15.78772000     -0.018293    0.70610300   -0.74646900
Se    7.34053000    1.16634000    6.10871000     -0.573024    1.15112500   -1.05987300
Se    6.98418000    1.44234000   15.84297000     -2.719731    1.45512300   -1.17791500
Se    7.35158000    7.02616000    5.58023000     -0.635656   -0.74193900    0.76855800
Se    7.66449000    7.19081000   15.74542000     -1.831274    0.07481000    0.16412000
Se    7.00061000   12.82753000    5.86942000      0.079232    0.03849600    0.12803300
Se    7.35748000   12.84421000   15.68671000     -1.183752    0.28906300   -0.25316800
Se    7.41158000   19.09928000    6.28569000     -0.570255   -0.47947600   -0.20049600
Se    7.12869000   19.02401000   15.44625000      0.848390   -0.37915400    0.39693600
Se   13.33643000    1.38723000    6.40137000      0.747667   -0.59787400   -0.03736200
Se   13.06062000    1.57482000   15.81455000     -0.580152   -0.54751800    0.34489800
Se   13.17035000    7.21507000    5.61445000      0.923251    0.41892800    0.65429100
Se   13.21458000    7.58408000   16.11643000     -0.627413   -0.44925500    0.10174100
Se   13.23940000   13.24313000    5.67853000     -0.780022    0.54999200   -0.14781100
Se   12.65456000   13.10956000   15.96322000     -0.249759    0.37165600   -0.69581500
Se   13.51490000   18.61435000    6.18106000      0.151503   -0.13454500    0.68315400
Se   12.91491000   18.93702000   15.84824000     -0.367399    0.43384400   -0.17281900
Se   18.66834000    1.06472000    5.95160000      0.051613    0.96141200   -0.50738200
Se   19.04345000    1.30887000   15.77172000     -0.292777    0.29304600   -0.09418100
Se   18.66036000    7.19733000    6.17792000      0.146353   -0.00034100   -0.34948300
Se   18.69463000    6.82839000   15.88771000      0.569798    0.51122300    0.32273200
Se   18.64464000   13.08037000    6.06721000      0.881640   -0.14682100   -0.15026300
Se   18.89134000   12.80007000   16.09021000     -0.486389   -0.34957600    0.42111800
Se   18.68028000   19.21107000    6.23675000      0.034884    0.06993100   -0.33302800
Se   18.76129000   18.90831000   15.79872000     -0.466847   -0.56001500    0.03572900
Se    4.05186000    4.59850000    5.98388000      0.735304    0.82245600    1.20588000
Se    4.51697000    4.21588000   16.24052000     -0.178057    1.45462700    0.74713900
Se    4.46293000   10.15042000    5.79674000      0.862352   -0.17611100    0.15593700
Se    4.53063000   10.09065000   16.09846000     -0.851614   -0.61844400   -0.59947000
Se    4.12050000   15.91833000    6.17138000     -0.486795   -0.45408500   -0.19227500
Se    4.54286000   16.04019000   15.71931000      1.271648    0.18822100    0.04621300
Se    4.22169000   21.76967000    6.13123000     -0.088697    0.93929300    0.87070700
Se    4.25453000   21.70865000   16.06358000      1.093785    0.36457600    0.19619900
Se   10.31105000    4.39500000    5.83605000      0.215040   -0.49703800    0.07747400
Se   10.00954000    4.25217000   15.65640000      0.058247   -0.41841200    0.39186800
Se   10.08585000   10.06537000    6.22565000      0.563563   -0.49232000   -0.67617500
Se   10.64562000   10.36517000   15.81656000     -0.732964   -0.42651800   -0.05871700
Se   10.01585000   15.69402000    6.29977000      0.760444    0.64536900    0.34844400
Se   10.18700000   15.67991000   15.81098000     -0.877468    0.45956900   -0.37877300
Se   10.28552000   21.69472000    6.95532000     -0.740703    0.48238100   -0.75105400
Se   10.15370000   22.19474000   15.46898000     -0.098188    0.28120200    0.63854500
Se   15.94169000    4.19557000    6.46944000      0.380362   -0.33713400   -0.95787100
Se   15.97754000    4.23367000   15.80107000     -0.489950    0.78797500    0.31443900
Se   16.02541000   10.39806000    6.02180000      0.685992   -0.83863900   -0.52478000
Se   15.84195000   10.42161000   15.87029000      0.091972    0.36805000    0.37102600
Se   16.34910000   15.73515000    6.11449000      0.301327    0.40508700    0.61531400
Se   15.72761000   15.52962000   15.87805000     -0.522231    1.09006800    0.18101500
Se   16.51551000   21.80948000    5.90046000     -0.192687   -0.18680700    0.08777800
Se   16.00774000   21.85353000   16.09350000     -0.899644   -0.35044800   -0.54997700
Se   21.70046000    4.48705000    5.84240000     -0.044467    0.45249600    0.94361800
Se   21.90372000    4.48213000   15.90286000      0.277981   -1.16714900   -0.77765600
Se   21.65534000    9.81101000    6.07702000      0.418087   -0.41264200   -0.66049900
Se   21.58346000    9.95151000   16.37520000      0.798791   -0.57682900   -0.42165100
Se   21.61008000   16.44886000    5.67319000     -0.528442   -0.42314100    0.64707200
Se   21.66806000   15.79706000   15.68330000     -0.305922    0.32518900    0.13879900
Se   21.70976000   22.01070000    5.69948000     -0.312977   -0.36338800    0.93828000
Se   21.39346000   21.55759000   16.27260000      1.223327   -0.10816600   -0.56406700
Se    4.23710000    1.48175000    3.72762000      0.375311   -0.69924900   -0.07891300
Se    4.53912000    2.00359000   13.33444000     -0.057405   -1.33870900   -0.05612300
Se    4.42891000    7.04024000    3.91949000      0.130824    1.01308000   -0.73788900
Se    4.30204000    7.51263000   13.67513000      0.531016   -0.99470100   -0.76961000
Se    4.27604000   13.15348000    3.68284000      0.612598   -0.54166200   -0.33949400
Se    4.37518000   13.08741000   13.36399000     -0.404553   -0.37390300    0.64651600
Se    4.23117000   18.61611000    3.60230000      0.229860    0.43697500    0.60279600
Se    4.27638000   19.20798000   13.22135000      1.413400   -1.14241600   -1.17043000
Se    9.91757000    1.59845000    3.28901000      1.063265    0.26286500    0.48334600
Se    9.65285000    1.70385000   12.91671000      0.365275    0.15176800    0.59596600
Se   10.24917000    7.30150000    3.55943000      0.062203   -0.02150700    0.00090500
Se   10.48957000    7.20756000   13.21991000     -0.851422    0.24793800    0.79133200
Se   10.53192000   13.23098000    3.63052000     -0.806591    0.76456700    0.63489100
Se    9.98617000   12.94845000   12.95394000      0.047352    0.05612600    0.44313300
Se   10.62363000   19.01823000    4.20262000     -0.138169    0.02711100   -0.21486500
Se    9.88844000   18.95379000   13.04253000     -0.515913   -0.46992000    0.95000400
Se   15.84844000    1.46012000    3.54604000      0.220362    0.01599800   -0.02582600
Se   15.67751000    1.45386000   13.33618000      0.472918   -0.01586400   -0.21004800
Se   16.03938000    7.27374000    3.48159000      0.573042    0.18562400   -0.64838900
Se   16.44636000    6.90813000   13.57982000     -1.185323    0.90480600    0.56226900
Se   15.81321000   13.35496000    3.23301000     -0.729717   -0.83642600    0.78739000
Se   15.84455000   12.67654000   13.38280000     -0.255483   -0.66631600   -0.11467600
Se   16.12282000   18.92026000    3.46007000     -0.360876    0.07701200    0.55120500
Se   15.62640000   18.79021000   13.59688000      0.219197    1.03664000   -0.27886100
Se   21.29100000    1.65108000    3.64784000      0.788182   -1.32240100   -0.55330600
Se   22.00021000    1.44055000   13.44976000      0.074850   -0.06333000    0.01173200
Se   21.89712000    6.93507000    3.86089000     -0.122583    0.01563000   -0.51676300
Se   21.88156000    7.07753000   13.80703000     -0.263787    0.55941500   -0.05494600
Se   21.55767000   12.98465000    3.62277000      0.519803    0.33442600   -0.63593200
Se   21.59685000   12.80165000   13.40789000      0.106737    0.54766600    0.02491300
Se   21.63962000   18.98434000    3.38536000     -0.202688   -0.78226400    0.08132700
Se   21.91740000   19.24187000   13.66298000     -0.383100   -0.69313700    0.07359300
Se    1.34887000    4.35650000    3.56143000     -0.162300    0.10632000    0.04478800
Se    1.53348000    4.49372000   13.49904000     -0.224587   -0.09904200   -0.19711300
Se    1.38028000    9.93005000    3.59894000     -0.545337    0.86450000   -0.76442700
Se    1.23053000   10.29355000   13.79723000     -0.330042   -0.10476700   -0.55888900
Se    1.00794000   15.95465000    3.90202000      0.724721   -0.53772300   -0.02475100
Se    1.40744000   15.85112000   13.54352000      0.538113    0.05521000    0.63398200
Se    1.56538000   21.63784000    3.73719000     -0.511831    0.60250600   -0.58608900
Se    1.38178000   22.01757000   13.66372000      0.291674    0.52107200   -0.07788200
Se    7.33132000    4.15296000    3.48353000     -1.087055    1.02859000   -0.13900200
Se    7.22315000    4.74347000   13.40984000      0.190194    0.30814200    0.13270300
Se    7.16529000   10.12306000    3.67811000      1.066584    0.58157500    0.46957100
Se    7.43639000   10.06631000   14.03825000     -0.281641   -0.25791500   -1.15288000
Se    7.53407000   15.94685000    3.65756000     -0.359885    0.57568400    0.08156100
Se    7.20329000   16.04717000   13.51559000      0.284803    0.02677100    0.07827400
Se    7.40093000   21.69189000    3.85281000     -0.145960   -0.71314200    0.02653000
Se    7.59485000   22.16708000   13.15137000     -1.014718   -1.29680600   -0.56079700
Se   13.21930000    4.50034000    3.69312000     -0.336838   -0.41828900   -0.17158400
Se   12.72294000    4.77414000   13.39009000      1.620493   -0.03810000    1.19298600
Se   13.18580000   10.21799000    3.53988000      0.164394    0.79410200    0.17662600
Se   13.46982000    9.92081000   12.92894000      0.864715    0.79318200    1.32641400
Se   13.18299000   16.56682000    3.88839000     -0.179039   -0.55595100   -0.29208400
Se   12.88666000   15.79979000   13.44419000      0.722914    0.10902900    0.10087800
Se   13.49095000   21.80558000    3.58514000      0.667048    0.71637900    1.03332600
Se   13.07259000   21.90123000   13.22631000     -0.166914    0.23995300    0.37784400
Se   18.61138000    4.56821000    3.80166000     -0.275635   -1.06632600   -0.40260000
Se   18.89110000    4.42836000   13.76335000     -0.124896   -0.48717600   -0.19882200
Se   18.60040000   10.01804000    3.62612000      1.226652   -0.01599600    0.34116400
Se   18.99352000   10.06728000   13.56497000     -0.101441   -0.78042300    0.07643900
Se   18.66901000   16.16857000    3.58323000      0.936091   -1.14469500    0.48770500
Se   18.30141000   15.63252000   13.76082000      0.619716   -0.81564400   -0.59240700
Se   18.81774000   21.86120000    3.57790000     -0.211170    0.02484000   -0.59487300
Se   18.56699000   21.66314000   13.24430000      0.385330    0.23106800    0.41841500
