384
23.23808000 23.23808000 19.51320000
Ge    5.75612000    5.75981000    9.55768000     -0.285085    1.25550400   -0.23894200
Ge    5.52902000    5.68821000    0.20315000      0.975591   -0.41685300   -0.11306000
Ge    5.85105000   11.87595000    9.80909000      0.732249   -1.65950500    0.53529900
Ge    6.12881000   11.54482000    0.21018000      0.922755    1.43560200   -0.71029500
Ge    5.45902000   17.42085000    9.48060000     -0.062073   -1.23405300    1.01429100
Ge    6.06575000   17.11240000    0.03140000      0.247759   -0.33122300   -0.23263900
Ge    5.46545000    0.18872000    9.78449000      0.245461    0.65240100   -0.37766000
Ge    6.26442000   22.85312000    0.01861000     -0.774710    0.53492900    0.56364600
Ge   11.56754000    5.65908000    9.70757000      2.677047    1.82750200   -1.65901700
Ge   11.41106000    5.89590000   19.41548000      1.288652   -0.27971500    0.67784900
Ge   11.52434000   11.45564000    9.45401000     -0.389519    0.37923100   -0.20053500
Ge   11.77325000   11.85036000    0.21886000     -0.996377    1.25176200    0.59579300
Ge   11.62807000   17.37944000    9.70581000     -0.447710   -1.29790800   -0.32906900
Ge   11.49136000   17.95908000    0.06912000     -0.518445   -0.11445800   -0.44872700
Ge   11.73932000    0.01581000    9.77511000      0.531352    0.85963000   -0.26020000
Ge   11.29216000    0.31601000    0.08232000      0.096922   -1.08166500    0.38936400
Ge   17.73544000    5.50302000    9.76993000     -0.372152    0.15048500   -0.43752400
Ge   17.53174000    5.36238000   19.38871000     -0.277186    1.27411200    0.55849800
Ge   17.60821000   11.11086000    9.75275000     -0.882275    0.49326200    0.08164100
Ge   17.07354000   11.71064000   19.28295000      0.062506    0.70821400    0.58356000
Ge   17.56313000   16.98808000   10.04245000      1.387893    0.84695100   -0.71472900
Ge   17.44709000   17.41173000   19.18846000     -0.121352    1.11610700   -0.60239600
Ge   17.58927000    0.16434000   10.00657000      0.371377   -1.52271900    0.40537500
Ge   17.48671000    0.24856000   19.39059000     -1.392279   -0.49018600    1.55636000
Ge   23.11876000    5.94422000   10.02435000      0.313813    1.06900400   -0.21452900
Ge   23.06991000    5.72719000   19.31445000      0.963694    0.06646400    1.02322600
Ge   23.14689000   11.56325000    9.91733000     -0.475101   -0.12317000   -1.03510100
Ge    0.21147000   11.37240000    0.09898000     -1.198827    1.18597600    0.55408200
Ge   22.95809000   17.57648000    9.73760000      0.176452    0.46462000    0.69933700
Ge    0.46723000   17.64635000   19.45988000     -0.011665   -0.58583700   -0.85805000
Ge   22.91604000    0.40656000    9.79638000     -0.173932   -0.91029700   -0.62226300
Ge    0.10237000   23.17008000    0.04687000      0.421846    1.23114000   -0.38893800
Ge    2.63767000    5.96574000    7.51775000      0.118874    0.38891900   -1.31396700
Ge    2.83023000    5.91632000   17.20167000      0.875564   -0.25118900    0.07008900
Ge    3.07192000   11.38931000    7.25799000     -1.734118    0.01018800    0.80970700
Ge    3.18362000   11.59393000   17.26838000      0.037253    0.20904800   -0.29057700
Ge    2.65664000   17.44733000    7.26297000     -0.875602   -0.71530600   -0.73242700
Ge    3.36626000   17.69701000   16.84705000     -0.518895    0.23197800    1.17009300
Ge    2.54383000    0.15089000    7.28953000      0.787921   -1.37889800    0.59717100
Ge    2.86456000    0.04520000   17.27201000      0.384107   -0.59825600   -0.38893800
Ge    8.81773000    5.72803000    7.00773000     -0.854776    1.31021400    1.34954600
Ge    8.67701000    5.68530000   17.09030000      0.781270   -0.86136000    1.31073800
Ge    8.59053000   11.59372000    7.13335000     -0.042939    0.04074900    0.59153100
Ge    8.93618000   11.71838000   16.93338000      0.243170   -0.96499400    0.59022000
Ge    8.63408000   17.35503000    7.29144000     -0.099296   -0.13170400    0.53660600
Ge    8.58662000   17.43599000   16.85131000      0.352159   -0.29011800   -0.33881600
Ge    8.54239000    0.04927000    7.71685000      1.459073   -1.28627200    0.23397800
Ge    8.45106000    0.14129000   16.87740000      1.966664   -1.21546000    0.24497100
Ge   14.68030000    6.11378000    7.10961000     -1.316227   -1.67897900    0.68687700
Ge   14.42780000    5.75933000   17.05602000      1.441272    0.59098400   -0.65007500
Ge   14.59889000   11.97169000    7.03466000      0.317545   -1.10803200    1.10706700
Ge   14.14496000   11.78237000   17.08375000      1.078332   -0.40423800   -0.18445100
Ge   14.87319000   16.91098000    7.65955000     -0.165786    0.90708200   -0.46671100
Ge   14.19117000   17.24973000   16.89784000      2.003381    0.49395300   -0.16303400
Ge   15.32536000   23.19056000    7.44317000     -2.095807    0.30152500   -0.56101600
Ge   14.37561000    0.01607000   17.19474000      0.570122    0.68742600   -0.56680400
Ge   20.24295000    5.78580000    7.31634000     -0.091715   -0.45818000    0.08893200
Ge   20.34465000    5.62765000   17.19663000     -0.694276   -0.03437000   -0.38718600
Ge   20.22220000   11.44183000    6.94110000      0.066693    0.17674600    1.63132900
Ge   20.28348000   11.53769000   17.56150000      0.743810    0.66756700   -0.74740500
Ge   20.20988000   17.75652000    7.24303000      0.560607   -1.01467100    0.59049800
Ge   20.55484000   17.66789000   16.81188000     -0.834713    0.35760500    0.91795800
Ge   20.08066000   22.94620000    7.30943000      0.959631    0.78316700   -0.37269800
Ge   20.32592000    0.08905000   17.34673000      0.384002   -0.45065500    0.51432400
Ge    2.90697000    2.99383000    4.86562000     -1.368839    0.01173100   -0.49357200
Ge    3.10537000    3.19271000   14.72892000     -0.787824   -0.81927000    0.26088700
Ge    2.94411000    8.66810000    4.79495000      0.275004   -0.44461700    0.03877000
Ge    2.74853000    8.85593000   14.80799000      1.580687    0.31120300    0.99415900
Ge    2.65599000   14.38478000    4.83390000     -0.132986    0.51803100    1.15199900
Ge    3.07886000   14.58284000   14.85396000     -1.582522   -1.60086300   -1.39084600
Ge    2.93983000   20.24529000    5.02518000     -0.380530   -0.83588400   -1.57957800
Ge    3.03425000   20.42813000   14.54868000     -1.449380    1.25960500    0.80552300
Ge    8.70208000    2.97412000    4.91946000      0.360156   -1.84882200    0.11129800
Ge    8.29498000    2.91242000   14.52472000      1.548540    0.91718700   -0.54951400
Ge    8.74625000    8.63317000    4.79572000      0.890330    1.40174800   -0.22936600
Ge    9.18520000    8.60441000   14.80875000      0.848172    0.92008000   -0.55748200
Ge    8.57571000   14.38455000    5.05080000      0.889539   -0.73162100   -1.09827800
Ge    8.62127000   14.33530000   14.42492000      1.241697    0.57573200    0.07027400
Ge    8.99700000   20.44935000    5.28041000      0.095989    0.43397600    0.07503300
Ge    8.76074000   20.54344000   14.53649000     -0.819713   -0.46578700   -0.69684100
Ge   14.50992000    2.87848000    4.90174000      0.255536   -0.29282700    1.07679900
Ge   14.45036000    2.98941000   14.51964000     -0.509141    0.59857800   -0.40129900
Ge   14.75490000    8.92409000    4.60648000      0.233877   -1.28051400    0.26200000
Ge   14.80429000    8.62821000   14.73976000     -0.328560   -0.74812800   -1.03131200
Ge   14.69074000   14.89249000    4.73013000      0.093338    0.06260600   -0.31530100
Ge   14.36780000   14.15245000   14.49243000     -0.442449    0.33369800    0.34240800
Ge   14.72514000   20.28010000    5.06106000      0.874013    0.08490200   -0.97643700
Ge   14.29110000   20.63240000   14.80747000      1.676767   -0.84108700   -0.66020800
Ge   20.10939000    3.05314000    4.94084000     -1.812214    0.54298800    0.71259900
Ge   20.47235000    2.86404000   14.63942000      0.694001    0.45748100    0.47185600
Ge   20.23293000    8.43920000    4.70487000     -0.520634    0.26979700    0.33765900
Ge   20.16615000    8.50309000   15.04926000      0.751557    0.25384500   -0.59087800
Ge   20.26238000   14.50422000    4.85861000     -0.999432    0.78567500   -0.27829700
Ge   20.03885000   14.18965000   14.66684000      0.391175    1.16089800   -0.20428100
Ge   20.23295000   20.36269000    4.74363000      0.382355    0.38426100    0.35828300
Ge   20.12179000   20.40589000   14.63908000     -1.035746    0.41661700   -0.34072400
Ge    5.86344000    2.64327000    2.38450000      1.218609   -0.38554800   -0.08049500
Ge    5.83620000    3.44289000   12.02567000     -0.040579   -0.86892200    0.28350300
Ge    5.87519000    8.60848000    2.62854000     -0.374341   -1.25079100   -0.68059200
Ge    6.12008000    8.66514000   12.39491000     -1.534030    1.43051000    0.77597300
Ge    5.86696000   14.57685000    2.58577000     -0.481997    0.25024300   -0.37117000
Ge    5.81078000   14.56420000   12.30037000     -1.458564    0.87124100   -0.57946900
Ge    5.89509000   20.06590000    2.64746000      1.253895   -1.12658900    0.32839800
Ge    6.03731000   20.45264000   11.92867000     -0.781218    0.88228000    0.24222200
Ge   11.58998000    3.12421000    2.36326000     -0.739636    0.58628100    1.64095100
Ge   11.43423000    3.30718000   12.28110000     -0.221888   -1.66578700   -0.63046400
Ge   11.90608000    8.63860000    2.41550000     -0.285618   -0.04681900   -0.56787600
Ge   11.62458000    8.88446000   11.99672000     -0.051246   -0.89314700   -0.72248000
Ge   11.76225000   14.97087000    2.56466000     -0.013246    0.50234800    0.16718500
Ge   11.56770000   14.48412000   12.05486000     -1.003939   -0.63244500   -0.76778200
Ge   11.73753000   20.54997000    2.78567000      0.846889   -0.94784400   -0.13477500
Ge   11.54079000   20.24811000   12.35844000      1.572135    1.00259400   -2.43827100
Ge   17.24787000    2.95725000    2.27143000      0.873398   -0.03919300    1.33574000
Ge   17.42638000    2.94548000   12.61051000      0.373041   -1.06604600   -0.74990900
Ge   17.60029000    8.63675000    1.93284000     -1.289655   -0.02602800    0.81863600
Ge   17.67447000    8.42219000   12.23838000     -0.055995    0.39893600    0.03166200
Ge   17.39153000   14.73479000    2.22346000      0.414255    0.33963000    0.51704800
Ge   17.33864000   14.06438000   12.11778000     -0.457942    1.17995300    0.81024800
Ge   17.58585000   20.34256000    2.17628000     -0.933802    0.01430000   -0.35972700
Ge   17.12001000   20.04563000   12.08535000      0.414477   -0.67565100    1.13681900
Ge   22.88568000    3.01654000    2.56322000      0.516484   -0.37286500    0.19075300
Ge    0.13825000    2.94544000   12.17589000      0.590400    1.02423600    0.45675600
Ge   23.12899000    8.41955000    2.42036000      1.227112   -0.47378500    0.09135400
Ge    0.05716000    8.54136000   12.53468000     -0.669824    1.25616900    0.10147100
Ge   23.16324000   14.49083000    2.36202000      0.061690   -0.66179400    0.46870200
Ge   23.09585000   14.50202000   12.45483000     -0.560225   -0.07250500   -0.54270300
Ge    0.13157000   20.25970000    2.38328000      0.157104    0.54009100   -0.12243900
Ge   23.07546000   20.72815000   12.34926000      1.300373   -0.03210400   -0.37910400
Se    1.15378000    1.46180000    1.62804000      0.974967   -0.67417000   -0.57823300
Se    1.36795000    1.87034000   10.45316000      0.626889    0.02946600    0.82251000
Se    1.46779000    7.13988000    0.97615000     -1.061542    0.09892800    0.30996800
Se    1.50503000    7.36407000   11.15044000      0.256083   -0.63582900   -0.34771000
Se    1.45508000   12.75329000    1.62407000      0.143011    0.51000300   -0.14524500
Se    1.20439000   13.39605000   10.79996000     -0.031035   -0.37914000    0.27892800
Se    1.87864000   18.91336000    1.40305000     -0.642134   -0.11735200   -0.14939800
Se    1.14386000   19.16379000   10.97765000      0.130675    0.19633400    0.07855400
Se    7.58667000    1.36303000    1.09901000     -0.998900   -0.25190600    0.17318500
Se    6.97837000    1.73403000   10.83268000      0.299551   -0.14613300   -0.04954600
Se    7.18819000    6.94731000    1.41175000     -0.189010    0.32682100    0.09602500
Se    7.25197000    7.20609000   10.98200000      0.544957   -0.74736600   -0.63609100
Se    7.37284000   13.19296000    1.41792000      0.702357   -0.42665200   -0.01927900
Se    7.33313000   13.44656000   10.97875000      0.259867   -0.95343200   -0.87701600
Se    7.51244000   18.41610000    1.54225000     -0.984487    0.47136100   -0.09953700
Se    7.09950000   18.71772000   10.61122000      0.398515    0.23053600    0.32110100
Se   12.89359000    1.80626000    1.06224000      0.684881   -0.83662100   -0.77598500
Se   12.83610000    1.96143000   10.71021000      0.474312   -0.11447100    0.61203900
Se   13.20328000    6.95444000    1.20207000     -0.478453    0.52215300   -0.05041300
Se   13.11473000    7.58964000   10.61038000     -1.063109   -1.08739200   -0.22644200
Se   13.20438000   13.47095000    1.34057000     -0.287838   -0.21100300   -0.42585100
Se   12.90039000   12.99642000   10.71183000      0.418541   -0.20342400    0.08753900
Se   13.13438000   19.24739000    1.23165000     -0.329470   -0.15276200   -0.09776500
Se   13.01279000   18.92665000   10.71084000      0.211816    0.70612900    1.06425300
Se   18.93482000    1.52969000    1.27095000     -0.508395    0.20253000   -0.00796800
Se   18.99641000    1.42586000   11.49006000     -0.296971    0.20405000   -0.03201000
Se   19.00414000    6.81923000    1.37244000     -0.309696   -0.28614600   -0.68052200
Se   19.14542000    7.04104000   10.86850000      0.069540    0.71149100    0.58533100
Se   18.60447000   13.03202000    1.23145000      0.420471   -0.67794400   -0.82298100
Se   18.91897000   12.73684000   11.02311000      0.273787   -0.05139300   -0.26623300
Se   18.94940000   18.76373000    0.94999000      0.113386    0.55039000    0.10037400
Se   18.90039000   18.59305000   11.26692000     -0.393072    0.03498700    0.00771500
Se    4.28735000    3.91629000    1.26841000     -0.646548    0.81882300   -0.55599700
Se    4.18557000    4.55867000   10.89406000     -0.426769    0.60453800   -0.72691100
Se    4.66351000   10.24005000    1.30286000     -1.520734   -1.10196600    0.68434800
Se    4.57601000   10.35814000   11.33417000      0.984071   -0.20450500   -0.15100800
Se    4.47003000   15.49370000    0.82078000      0.061841    0.61723200    0.76527300
Se    4.09752000   15.94133000   10.99868000      0.936800    0.08371300   -0.16142800
Se    4.67643000   21.52640000    1.34626000     -0.078205    0.82093400   -0.71749800
Se    4.20221000   21.77861000   10.75885000     -0.175305   -0.81021100    0.97525500
Se   10.03068000    4.64962000    1.41043000     -0.009156   -0.18700100   -0.53104100
Se   10.08556000    4.34926000   10.68768000     -2.067788   -0.42855900    0.97704400
Se   10.43629000   10.32882000    1.46170000     -0.269128   -0.43048700    0.01267000
Se    9.98113000   10.07805000   10.73698000      0.384705    0.18336000   -0.07713400
Se   10.14135000   16.45857000    1.42715000      0.469333   -0.17690900   -0.07872000
Se   10.03819000   15.84927000   10.75909000      0.723370    0.37631200    0.22942600
Se   10.14156000   21.80283000    1.74062000     -0.617338    1.19357500   -1.26759100
Se   10.29990000   21.96132000   11.03488000     -0.281540   -0.76785200    0.44777700
Se   15.78796000    4.43110000    1.21369000      0.028938    0.06429800   -0.43209800
Se   16.22442000    4.34035000   11.16165000     -0.991515    0.07048500   -0.40622100
Se   15.80093000   10.04705000    0.84951000      0.261587   -0.91402000    0.52467900
Se   16.05773000    9.77695000   11.02360000      0.641680    0.06887900    0.12359200
Se   16.05888000   16.31876000    1.16125000     -1.320716   -0.09682700   -0.38138800
Se   15.93276000   15.76879000   11.08007000     -0.466424   -0.84393300    0.41962000
Se   15.96350000   21.77835000    0.98225000      0.842528    0.31741200    0.10885600
Se   15.87851000   21.64431000   10.87214000      0.323862    0.71987300   -0.46521900
Se   21.64626000    4.32464000    1.13140000     -0.642175    0.51685800   -0.43001300
Se   21.81267000    4.36595000   11.05466000     -0.835856   -0.54173100    0.83625200
Se   21.83410000   10.10005000    1.43882000     -0.391605    0.28771500   -0.62887800
Se   21.76988000    9.88655000   11.14029000      0.383112    0.48136100   -0.02732300
Se   22.17383000   15.88763000    0.70742000     -0.239872    0.26550000    0.12109900
Se   21.70144000   16.32827000   11.45605000      0.088364   -0.27804200   -0.17044400
Se   21.94281000   21.67687000    0.98943000     -1.022512   -1.24547000    1.11433000
Se   21.61189000   22.24560000   11.29693000     -0.267043    0.08848600   -0.32913600
Se    1.23007000    4.52367000    8.74740000      0.577462   -0.41527200   -0.56367500
Se    1.26356000    4.29907000   18.06744000      0.291488    0.03416900    0.05951600
Se    1.18514000   10.03376000    8.54923000      0.836192    0.34939600   -0.39106300
Se    1.90887000   10.13304000   18.65402000      0.138213   -0.77456900   -0.31027100
Se    1.18184000   16.11864000    8.57758000      0.090061   -0.58497400    0.09943700
Se    1.96675000   16.22353000   18.06382000     -0.718022    0.00871700    0.74083400
Se    1.35411000   22.04149000    8.94674000     -0.125414    0.06189800   -0.66993400
Se    0.96085000   21.84482000   17.78788000      1.133065    0.14896800    0.46784400
Se    7.08245000    4.37334000    8.13629000      0.387611   -0.27420700    0.09653700
Se    7.27063000    4.26261000   18.57394000     -0.029414    0.76181800   -0.44502300
Se    7.26367000   10.14904000    8.44739000     -0.858846    0.84685200    0.84545300
Se    7.74392000   10.33952000   18.54941000      0.633788   -1.01459100   -0.54589000
Se    6.89729000   15.94182000    8.25083000      0.320862    0.15118700    0.02848900
Se    7.50444000   15.69162000   18.07544000     -0.363727    0.92551900    0.46727000
Se    7.19911000   21.97364000    9.12173000      0.004868   -0.48073400   -0.46707000
Se    7.71318000   21.58208000   18.16642000     -0.318164   -0.43747500    0.20098700
Se   13.10536000    4.31893000    8.30360000      0.215335    1.47986500    0.14220100
Se   13.07648000    4.42519000   18.23555000     -1.529432   -1.05399600    0.95157300
Se   13.08186000   10.32017000    7.97553000     -0.228388   -0.01724800    0.32682800
Se   13.18604000   10.41164000   18.71228000      0.727728   -1.56775600   -0.50277000
Se   13.01634000   15.63726000    8.53241000      0.055178    0.86203700    0.06745000
Se   12.52777000   16.28031000   18.14268000     -0.467466   -0.54121100    0.72164300
Se   13.51300000   21.96207000    8.72576000      0.151996    0.03160300   -0.18438000
Se   12.85348000   22.02476000   18.54682000      0.084358   -0.26445100   -0.08040700
Se   19.22934000    3.99732000    8.67008000     -0.225580    0.39756800   -0.26879600
Se   19.02845000    3.94991000   18.32251000      0.207307   -0.38014500   -0.29905100
Se   19.02529000    9.79579000    8.50287000      0.537942    0.39288100   -0.73645600
Se   18.74615000   10.16141000   18.63015000     -0.175231   -0.33168600   -0.00192600
Se   19.23757000   15.79350000    8.68338000     -0.205836    1.22232200   -0.42449000
Se   19.16603000   16.16852000   18.21419000      0.407569   -0.52910800   -0.30655000
Se   19.12656000   21.59243000    9.00415000     -0.533260    0.68603600   -0.09306200
Se   18.79818000   21.85421000   18.59357000      1.301975   -0.45519800   -1.02019200
Se    4.30373000    1.48070000    8.15012000      0.089050    0.49469800    0.07387500
Se    4.67089000    1.12385000   18.51467000     -0.405772   -0.07215100   -0.04090000
Se    4.43206000    7.36496000    8.16682000      0.350153   -0.26014500    0.73035000
Se    4.39995000    7.38605000   18.58502000     -0.725456   -0.45266100   -0.64874000
Se    3.93248000   12.90313000    8.95813000     -0.224550    0.47098700   -0.84177800
Se    4.99011000   12.84673000   18.08886000     -0.230361    0.76065300    0.42817000
Se    4.08431000   18.87762000    8.32350000      0.258593    1.51858100    0.28807200
Se    4.90881000   18.82781000   18.34089000     -0.086290    0.35215500   -0.28772000
Se   10.08829000    1.42867000    8.71884000      0.578376    0.87541700    0.29785500
Se    9.97785000    1.54300000   18.03350000      0.216259    0.73969900    0.33943600
Se   10.13899000    7.16176000    8.47312000     -0.369090   -0.11068700   -0.55365100
Se   10.13513000    7.39490000   18.23165000     -0.501880   -0.26169700   -0.53498400
Se   10.03888000   13.05793000    8.31669000      0.223739   -0.11943200    0.28660100
Se   10.34485000   13.11366000   18.19308000      0.383410    0.83920400    0.50282700
Se   10.19373000   18.76443000    8.45023000     -0.072984   -0.02623200   -0.04608600
Se    9.75050000   19.15087000   18.08481000      0.629380   -0.52787000    0.37687200
Se   16.59410000    1.64138000    8.50282000     -0.391734    0.29762700    0.23773900
Se   16.08059000    1.51805000   18.06706000     -0.547504    0.81821700   -0.19269800
Se   16.34785000    7.11559000    8.40173000      0.440045    0.34878500    0.70353700
Se   16.22780000    6.95430000   18.11797000      0.084671    0.16771500    0.26252300
Se   16.03981000   12.73839000    8.79760000      0.273421    0.50709100   -0.09126600
Se   15.73079000   13.30485000   18.00569000      0.653216   -0.28773900    0.36366400
Se   16.17415000   18.58726000    8.92110000     -0.353418   -0.59817500   -0.56690300
Se   16.00419000   18.75438000   17.66775000     -0.209707   -0.75330400    0.73865600
Se   21.44895000    1.58100000    8.27958000      0.067455   -0.80003300    0.11725700
Se   21.95646000    1.51361000   18.41211000     -0.641250    0.09711000   -0.13707100
Se   21.43616000    7.19494000    8.82515000      0.668569    0.50054500   -0.31624400
Se   21.49422000    7.21367000   18.45206000      0.257735    0.58415700   -0.13494100
Se   21.72890000   12.91852000    8.29156000     -0.246809   -0.69689700    0.27646500
Se   21.96259000   13.06464000   18.50308000     -0.016225   -1.01347300    0.06291400
Se   21.98250000   19.23363000    8.29281000     -0.916353   -0.85548800   -0.03550900
Se   22.16327000   19.14265000   18.22058000     -0.366341   -0.93574000   -0.28645900
Se    1.33752000    1.45830000    5.84584000     -0.873039    0.57503700   -0.40191500
Se    1.63372000    1.61411000   16.02744000      0.196079    0.54125500   -0.67870900
Se    1.37081000    7.44080000    6.00105000     -0.195415   -0.53718800    0.94687400
Se    1.33120000    7.28955000   15.91925000      0.281281   -0.35314900    0.18682000
Se    1.37606000   12.65163000    6.04606000      0.650682    0.48200300   -0.07283200
Se    1.67007000   13.04213000   16.09838000      0.132060    0.08055500    0.02778600
Se    1.28639000   18.83857000    5.83742000     -0.253534   -0.42694000    0.65074600
Se    1.66092000   18.86774000   15.77088000     -0.037647    0.28826800   -0.29913900
Se    7.36602000    1.12493000    6.13287000     -0.813141    1.52658200   -1.45418700
Se    6.97921000    1.46418000   15.82907000     -1.962587    0.67346500   -0.53603600
Se    7.33592000    7.03467000    5.59058000     -0.596876   -0.83933100    0.88635300
Se    7.62134000    7.17706000   15.76028000     -1.871278    0.65615400   -0.28646300
Se    7.01903000   12.77798000    5.83048000     -0.087039    0.29890700    0.04498500
Se    7.28812000   12.80878000   15.68384000     -0.488128    0.35870600   -0.18949500
Se    7.37445000   19.05223000    6.26218000     -0.665861   -0.17338500   -0.28790100
Se    7.09576000   19.02493000   15.45252000      0.829924   -0.36566700    0.35652300
Se   13.32291000    1.40123000    6.42971000      1.039200   -0.47449600   -0.25566300
Se   13.06027000    1.60706000   15.75912000     -0.723940   -0.79285900    0.72755500
Se   13.22207000    7.18522000    5.62219000      0.400219    0.83254700    0.18680500
Se   13.17391000    7.54689000   16.17090000     -0.093047    0.13284400   -0.45773500
Se   13.27754000   13.27867000    5.71871000     -1.252065    0.30473900   -0.10430500
Se   12.64160000   13.13162000   15.96626000     -0.068708    0.36947100   -0.82112000
Se   13.52102000   18.59157000    6.20198000      0.009020   -0.09449700    0.56424100
Se   12.94238000   18.97334000   15.84856000     -0.912551    0.31166200   -0.07768400
Se   18.66983000    1.10634000    5.92908000      0.296302    0.69252800   -0.26542500
Se   19.07267000    1.33100000   15.81784000     -0.720087    0.39486200   -0.38036700
Se   18.67880000    7.20509000    6.16363000      0.299051   -0.08492500   -0.27885600
Se   18.69972000    6.82564000   15.90201000      0.332132    0.53540600    0.25779900
Se   18.63139000   13.03959000    6.10942000      0.720517    0.19205600   -0.36926800
Se   18.85098000   12.82460000   16.09161000     -0.698730   -0.49232300    0.57262500
Se   18.66749000   19.22851000    6.20849000      0.072833   -0.05783600   -0.18560200
Se   18.69820000   18.94709000   15.81219000      0.500623   -0.69121100    0.14930800
Se    4.07223000    4.55666000    5.99418000      0.644528    0.84574700    1.12842400
Se    4.51079000    4.23393000   16.25217000     -0.253940    1.24205300    0.52946100
Se    4.49869000   10.13890000    5.85028000      0.405942    0.02796300    0.34272800
Se    4.55864000   10.08269000   16.10390000     -1.195568   -0.57045600   -0.53355000
Se    4.14058000   15.93491000    6.18882000     -0.586431   -0.75644800   -0.44667100
Se    4.52532000   16.03066000   15.73488000      2.191793    0.52606100    0.17974800
Se    4.14853000   21.78268000    6.14324000      0.613863    1.09836600    0.95105400
Se    4.29277000   21.71851000   16.07815000      0.605313    0.21884300    0.01770400
Se   10.29341000    4.41677000    5.86992000      0.849651   -0.81053400   -0.22083200
Se   10.06110000    4.27493000   15.68511000     -0.510568   -0.45841400    0.19295200
Se   10.10016000   10.07088000    6.24159000      0.354968   -0.65345000   -0.84426600
Se   10.64280000   10.36271000   15.83273000     -0.845130   -0.57931000   -0.12655800
Se   10.04390000   15.71057000    6.31054000      0.335312    0.26542300    0.08388200
Se   10.19962000   15.68497000   15.82122000     -1.071312    0.43287000   -0.36217600
Se   10.26200000   21.68761000    6.94108000     -0.749455    0.25630700   -0.86525800
Se   10.10737000   22.17342000   15.47485000      0.441761    0.48065800    0.71878000
Se   15.92981000    4.21632000    6.45726000      0.414916   -0.54959800   -1.02406100
Se   15.93632000    4.25094000   15.81849000     -0.216984    0.68648800    0.23266000
Se   16.03210000   10.40025000    5.97234000      0.572810   -0.29235300   -0.06683100
Se   15.83107000   10.40423000   15.86527000      0.150947    0.45339300    0.41340600
Se   16.37778000   15.73418000    6.14477000      0.064035    0.34899300    0.49653200
Se   15.73824000   15.53474000   15.91394000     -0.684104    0.91157600   -0.13804000
Se   16.51088000   21.78827000    5.88345000     -0.522620    0.11265000    0.37862500
Se   16.03510000   21.92228000   16.04149000     -1.279295   -0.33094000   -0.40400800
Se   21.71369000    4.55278000    5.85242000      0.079206   -0.09312100    0.54986000
Se   21.91818000    4.47641000   15.89925000     -0.143290   -0.84649300   -0.44308300
Se   21.67868000    9.79682000    6.07362000      0.134968    0.03601300   -0.44964800
Se   21.62286000    9.98135000   16.35929000      0.110139   -0.34614800   -0.31957000
Se   21.59141000   16.44504000    5.63285000     -0.380869   -0.37888200    0.76571900
Se   21.54861000   15.83871000   15.71474000      0.778857   -0.39378700   -0.35737700
Se   21.73190000   22.01160000    5.70248000     -0.417779   -0.42067900    0.84836700
Se   21.40151000   21.55018000   16.25008000      1.139325    0.12192200   -0.41457700
Se    4.27230000    1.51828000    3.71296000      0.383911   -1.38005600   -0.10475700
Se    4.52751000    1.96015000   13.30665000     -0.243594   -1.05163900    0.24297000
Se    4.44022000    7.04036000    3.88679000      0.181183    0.67433200   -0.64253300
Se    4.31472000    7.50570000   13.70707000      0.549327   -0.89912900   -0.83369600
Se    4.25937000   13.11352000    3.66389000      0.422841   -0.10974900   -0.20177100
Se    4.33943000   13.05297000   13.38284000     -0.230971    0.06481900    0.60058400
Se    4.21053000   18.63582000    3.60007000      0.355499    0.73032400    0.57937100
Se    4.27116000   19.13093000   13.19781000      1.414287   -0.80590600   -1.17732400
Se    9.90921000    1.55818000    3.35826000      1.029172    0.42713000    0.41871600
Se    9.65345000    1.68943000   12.88030000      0.370240    0.30066300    0.69589800
Se   10.29090000    7.28743000    3.54664000     -0.085025    0.07709500    0.06092300
Se   10.48637000    7.23512000   13.23818000     -0.627787    0.12155300    0.52997700
Se   10.52384000   13.20846000    3.64171000     -0.827428    0.63319900    0.61667100
Se   10.00562000   12.93350000   12.95328000     -0.248393    0.17386600    0.68133300
Se   10.58992000   19.02489000    4.20079000     -0.164512   -0.19142400   -0.11360400
Se    9.91493000   18.94708000   13.09358000     -1.229064   -1.26019000    1.15450800
Se   15.87255000    1.45442000    3.53161000      0.100281   -0.18762900   -0.02447200
Se   15.68432000    1.39907000   13.31656000      0.549548    0.37802700   -0.18521800
Se   16.07997000    7.24874000    3.45514000     -0.008434    0.86010800   -0.28056700
Se   16.46347000    6.88770000   13.55917000     -1.204887    0.89796000    0.61144500
Se   15.76251000   13.39191000    3.21505000     -0.191006   -0.29640400    0.49843300
Se   15.85519000   12.68264000   13.36048000     -0.209922   -0.53638700   -0.13855900
Se   16.09382000   18.94150000    3.46429000     -0.240580    0.04403500    0.38866900
Se   15.58789000   18.76422000   13.59095000      0.253562    1.20881100   -0.36777100
Se   21.29188000    1.63900000    3.67737000      1.226409   -1.27865700   -0.92285300
Se   22.04579000    1.45301000   13.42146000     -0.477221   -0.01302000    0.38360800
Se   21.88016000    6.90190000    3.86261000     -0.038687    0.32917400   -0.63419000
Se   21.93906000    7.08566000   13.82262000     -0.523054    0.39108600    0.18699800
Se   21.55598000   12.95258000    3.59636000      0.284385    0.73899800   -0.36412500
Se   21.55733000   12.77843000   13.39663000      0.286956    0.88510600   -0.02829400
Se   21.67114000   18.97585000    3.44806000     -0.038258   -0.88436200   -0.13251500
Se   21.92550000   19.22127000   13.68079000     -0.394705   -0.94340600    0.17489600
Se    1.33721000    4.37332000    3.58493000      0.070291   -0.04824500    0.15863200
Se    1.52703000    4.52263000   13.57013000     -0.476332   -0.09230200   -0.52148200
Se    1.43095000    9.94233000    3.57032000     -0.281886    0.19619100   -0.43999000
Se    1.27753000   10.28514000   13.76580000     -0.635927    0.29373900   -0.60018300
Se    1.01830000   15.94346000    3.94841000      0.398487   -0.39729100   -0.42928200
Se    1.41075000   15.85736000   13.61497000      0.158135    0.19295800    0.24194900
Se    1.53735000   21.67330000    3.68188000     -0.105399    0.47377800   -0.07064500
Se    1.38877000   22.00595000   13.69134000      0.163164    0.08336300   -0.25678700
Se    7.33074000    4.15586000    3.50835000     -0.990006    1.23547100   -0.21030500
Se    7.22520000    4.74121000   13.34525000      0.461970    0.30733000    0.43553900
Se    7.19651000   10.15716000    3.66639000      1.020820    0.22412000    0.51845000
Se    7.44650000   10.08636000   13.99121000     -0.121580   -0.58058700   -1.03487700
Se    7.56979000   15.96846000    3.65920000     -0.744494    0.25506600   -0.16273700
Se    7.18635000   16.03750000   13.49681000      0.370872    0.02983500    0.15931500
Se    7.41427000   21.64388000    3.79334000     -0.117559   -0.26615400    0.12380900
Se    7.62106000   22.15952000   13.13075000     -0.957828   -1.52428400   -0.36635600
Se   13.29747000    4.49084000    3.70122000     -0.974485   -0.31785300   -0.59071000
Se   12.74601000    4.80683000   13.45633000      1.126707   -0.73586000    0.66764300
Se   13.19664000   10.24311000    3.52012000     -0.169079    0.64749600   -0.03375400
Se   13.48980000    9.90979000   12.92631000      0.738542    0.78825500    1.20814500
Se   13.24147000   16.59054000    3.89347000     -0.629280   -0.82455200   -0.49495200
Se   12.87533000   15.78591000   13.43182000      0.876593    0.38823300    0.22903700
Se   13.49516000   21.84146000    3.61458000      0.210598    0.29045100    0.84847600
Se   12.99974000   21.89256000   13.19375000      0.117622    0.09502000    0.77302100
Se   18.60810000    4.52882000    3.75427000     -0.229726   -0.71565200   -0.20807100
Se   18.83570000    4.40794000   13.78882000      0.276954   -0.16352900    0.11095900
Se   18.62908000   10.00534000    3.61216000      0.976871   -0.18835600   -0.07715600
Se   19.04131000   10.04671000   13.56356000     -0.333499   -0.77542100   -0.08221200
Se   18.66386000   16.15338000    3.63759000      0.831640   -1.06523000    0.33427800
Se   18.29553000   15.67496000   13.75182000      0.741569   -1.10708200   -0.53218600
Se   18.79316000   21.82455000    3.59977000     -0.068283    0.41734600   -0.52960000
Se   18.54526000   21.63949000   13.25200000      0.300143   -0.01377000    0.28243400
