384
23.23808000 23.23808000 19.51320000
Ge    5.76456000    5.73886000    9.54824000     -0.242248    1.22991600   -0.45979600
Ge    5.54096000    5.65100000    0.15823000      1.173148   -0.01054200    0.16210700
Ge    5.85645000   11.85364000    9.77839000      0.594434   -1.30609600    0.81406700
Ge    6.14104000   11.60254000    0.19563000      0.388826    0.43886500   -0.58220400
Ge    5.48465000   17.39798000    9.48097000     -0.071452   -0.78993000    1.16904800
Ge    6.06314000   17.12229000    0.05410000     -0.021073   -0.65899300   -0.29544900
Ge    5.48075000    0.16531000    9.80605000     -0.079740    1.48342500   -0.44122700
Ge    6.21395000   22.87647000    0.02179000     -0.210442    0.10195100    0.51190000
Ge   11.57302000    5.69906000    9.72775000      2.812148    1.85883300   -2.06807900
Ge   11.39870000    5.85977000   19.39561000      1.703825   -0.18431000    0.69208400
Ge   11.52420000   11.47568000    9.46968000     -0.288857    0.42490300   -0.30426700
Ge   11.78494000   11.87201000    0.22865000     -1.250071    0.77748500    0.43549900
Ge   11.62075000   17.37252000    9.70789000     -0.038246   -0.95701900   -0.17481400
Ge   11.45015000   17.95241000    0.07559000     -0.249622   -0.08963900   -0.43291900
Ge   11.68359000    0.00729000    9.74317000      0.981298    0.88615700   -0.01842600
Ge   11.30156000    0.29788000    0.11869000      0.152410   -0.69130600    0.14648300
Ge   17.68098000    5.46706000    9.73394000      0.044979    0.85513300   -0.28538400
Ge   17.53074000    5.37859000   19.36943000     -0.113026    0.90325700    0.73175500
Ge   17.61627000   11.15240000    9.75234000     -0.393220   -0.16006300    0.01299100
Ge   17.03564000   11.71715000   19.26797000      0.564165    0.44115600    0.52756500
Ge   17.55624000   16.97549000   10.07058000      1.089852    0.96265900   -1.06577400
Ge   17.46245000   17.38783000   19.20984000      0.529314    1.40248400   -1.20323100
Ge   17.63803000    0.16161000   10.02412000      0.174329   -1.25802000    0.18844400
Ge   17.48636000    0.25568000   19.40682000     -1.027331   -0.81041400    1.53021000
Ge   23.07387000    5.95664000   10.05316000      1.080382    0.96627900   -0.66485300
Ge   23.04175000    5.74776000   19.30733000      0.967228    0.20099100    1.06431700
Ge   23.13926000   11.56633000    9.87260000     -0.643474    0.07221600   -0.48177300
Ge    0.18875000   11.37829000    0.06912000     -0.638037    0.86452200    0.39024900
Ge   22.92545000   17.56757000    9.75561000      0.700111    1.01072400    0.52906300
Ge    0.39287000   17.70927000   19.46977000      0.753104   -1.09236600   -0.58528600
Ge   22.86507000    0.42975000    9.78881000      0.621003   -1.04848800   -0.18308500
Ge    0.13014000   23.16009000    0.04143000      0.427133    1.50753500    0.08560200
Ge    2.68300000    5.95601000    7.51976000     -0.006815    0.37246800   -1.11549700
Ge    2.81255000    5.90326000   17.16343000      1.066319   -0.08961900    0.44568500
Ge    3.01836000   11.40514000    7.31610000     -1.257420   -0.31098000    0.10073700
Ge    3.17205000   11.58167000   17.27437000      0.356844    0.24587500   -0.53137800
Ge    2.67309000   17.42779000    7.23322000     -0.872115   -0.49036800   -0.17562700
Ge    3.37692000   17.67556000   16.88425000     -0.862576    0.23204400    1.03515300
Ge    2.58021000    0.09397000    7.27057000      0.350047   -0.74779500    1.16582500
Ge    2.84371000    0.02347000   17.31241000      0.603196   -0.50546400   -0.91819400
Ge    8.85541000    5.77596000    7.02364000     -1.612945    0.84145400    1.23742900
Ge    8.66133000    5.71225000   17.08702000      0.883720   -1.32462500    1.08242400
Ge    8.58874000   11.59413000    7.13261000      0.533866    0.25492200    0.72045900
Ge    8.93716000   11.69448000   16.96443000     -0.456230   -0.95231200   -0.09392700
Ge    8.62700000   17.36474000    7.26034000     -0.063519   -0.56467200    0.70094500
Ge    8.54240000   17.40519000   16.87638000      0.624027    0.03887700   -0.50927000
Ge    8.55964000    0.00818000    7.73343000      1.305287   -0.71671000   -0.05347400
Ge    8.47919000    0.06522000   16.90884000      0.874981    0.33029800   -0.39969900
Ge   14.64140000    6.09749000    7.09904000     -0.737169   -2.07786700    1.13140900
Ge   14.44938000    5.78815000   17.06185000      1.237790    0.70566400   -0.79912200
Ge   14.57989000   11.95126000    7.09662000      0.880480   -1.00735300    0.67466700
Ge   14.17333000   11.81445000   17.06799000      0.735908   -0.34372700   -0.42897400
Ge   14.86494000   16.92499000    7.64755000      0.057132    0.84785400   -0.40649200
Ge   14.20715000   17.25346000   16.82124000      1.394857    0.40758300    0.69571300
Ge   15.26965000   23.21035000    7.46043000     -1.480519    0.56428100   -0.79908700
Ge   14.36626000    0.05265000   17.20907000      0.426878    0.39696300   -0.86803000
Ge   20.25325000    5.72545000    7.29258000     -0.480751    0.65523400    0.38043100
Ge   20.31923000    5.65051000   17.22983000     -0.174075   -0.48581400   -0.73749200
Ge   20.21709000   11.48217000    6.96320000      0.784408   -0.62014200    1.59820100
Ge   20.24074000   11.57036000   17.54882000      1.087249    0.17341200   -0.66519200
Ge   20.19266000   17.72087000    7.21302000      0.440013   -0.53377600    0.67791200
Ge   20.58468000   17.65415000   16.79888000     -1.967217    1.58524000    1.31314800
Ge   20.11739000   22.93717000    7.29832000      0.467452    1.05689500   -0.21610900
Ge   20.31141000    0.08224000   17.33633000      0.964192   -0.61280900    0.73571600
Ge    2.93300000    2.94380000    4.83199000     -1.538280    0.90437800    0.09210800
Ge    3.08804000    3.19630000   14.70872000     -0.200029   -1.03625400    0.59807700
Ge    3.01784000    8.63174000    4.80365000     -0.927719    0.17934900    0.40610500
Ge    2.74406000    8.86149000   14.82052000      1.802065    0.06422600    0.94553800
Ge    2.60134000   14.39571000    4.84378000      0.812146    0.02577800    0.97739600
Ge    3.07417000   14.61904000   14.84657000     -1.341990   -1.99513800   -1.19798100
Ge    2.90805000   20.25588000    5.03018000     -0.715293   -0.72943200   -1.71928200
Ge    3.03769000   20.37874000   14.56506000     -0.565978    1.50352600    0.25249300
Ge    8.70289000    2.97348000    4.95512000      0.101464   -1.72041300    0.02273900
Ge    8.30951000    2.91616000   14.50586000      1.367907    0.93100400   -0.38615000
Ge    8.75978000    8.61662000    4.77635000      0.810701    1.26569500   -0.12013900
Ge    9.19718000    8.58476000   14.79563000      0.068274    1.07490100   -0.14970500
Ge    8.57404000   14.37601000    5.01833000      1.180971   -0.43424300   -0.62940500
Ge    8.62247000   14.33491000   14.45555000      0.681013    0.32307700    0.00813200
Ge    8.95262000   20.43615000    5.27455000      0.107506    0.21652800    0.15478600
Ge    8.75661000   20.51257000   14.55196000     -1.108296   -0.36205300   -0.70422700
Ge   14.51452000    2.86880000    4.86750000      0.503380   -0.54720500    1.52816600
Ge   14.46907000    2.97591000   14.49505000     -0.675335    0.70631100   -0.50962600
Ge   14.73809000    8.97423000    4.60840000      0.395663   -1.76034100   -0.00546500
Ge   14.79572000    8.61534000   14.68462000     -0.591853   -0.82517100   -0.51598000
Ge   14.66890000   14.90308000    4.77389000      0.847208    0.26282600   -0.52941000
Ge   14.36685000   14.17151000   14.46020000     -0.325058    0.11609400    0.59507400
Ge   14.70492000   20.27117000    5.05011000      0.919428    0.30099100   -0.76824000
Ge   14.29529000   20.64239000   14.81900000      1.579889   -0.37354500   -1.10061300
Ge   20.11522000    3.08654000    4.91482000     -1.393818    0.10833500    0.70940200
Ge   20.47878000    2.88664000   14.68791000      0.995480    0.27249400    0.05376800
Ge   20.24032000    8.47753000    4.68879000     -0.387418   -0.08792800    0.44271400
Ge   20.14839000    8.51061000   15.05286000      1.209602    0.15887500   -0.34753600
Ge   20.24322000   14.50946000    4.89377000     -0.770471    0.18528900   -0.55609000
Ge   20.02986000   14.17892000   14.67066000     -0.045652    1.03000400   -0.31797200
Ge   20.24533000   20.35206000    4.74241000      0.349956    0.40435700    0.37860900
Ge   20.13601000   20.39161000   14.62489000     -1.495484    0.21064100   -0.17677100
Ge    5.88077000    2.66818000    2.41376000      1.428479   -0.37709900   -0.44591700
Ge    5.78284000    3.43370000   12.05094000      0.160457   -0.90752600   -0.22008800
Ge    5.86097000    8.61646000    2.64673000     -0.015020   -0.57832000   -0.73158600
Ge    6.11337000    8.65261000   12.35305000     -1.475963    1.33880700    1.05929600
Ge    5.89533000   14.52024000    2.53961000     -1.086174    0.82658200   -0.10314100
Ge    5.79090000   14.54579000   12.29752000     -1.711927    0.76199100   -0.45093100
Ge    5.91800000   20.10028000    2.64865000      0.920823   -1.86497400    0.36522400
Ge    6.07871000   20.44536000   11.98053000     -0.947122    0.52009200    0.05813500
Ge   11.56122000    3.07383000    2.41674000     -0.115659    0.54894600    1.06152400
Ge   11.42505000    3.27816000   12.28839000      0.464693   -0.97048700   -0.42289800
Ge   11.91225000    8.63760000    2.36643000      0.028348    0.07318400    0.07369300
Ge   11.61115000    8.90798000   11.96132000      0.583275   -0.94194700    0.01797100
Ge   11.73351000   14.91852000    2.55995000      0.140716    0.92329600    0.29848900
Ge   11.53508000   14.47988000   12.06427000     -0.211924   -0.96532100   -0.45615000
Ge   11.74829000   20.50857000    2.80707000      0.741623    0.11687700   -0.47461000
Ge   11.52751000   20.20481000   12.36246000      1.899358    1.03560700   -2.50899900
Ge   17.20870000    2.96472000    2.26634000      1.197435   -0.32860800    1.17547300
Ge   17.44338000    2.93284000   12.63945000     -0.069696   -1.47815700   -1.15051500
Ge   17.55245000    8.59166000    1.89933000     -0.938831    0.38347300    1.23739200
Ge   17.68845000    8.38609000   12.21992000     -0.436125    0.98756500   -0.00478300
Ge   17.47356000   14.73912000    2.19718000     -0.950178    0.58000100    0.67465300
Ge   17.34077000   14.11589000   12.11033000      0.001716    0.51922700    0.93409200
Ge   17.56623000   20.36695000    2.15502000     -0.895559   -0.22924000   -0.16278000
Ge   17.02681000   20.03949000   12.05232000      1.124518   -0.79006300    1.24711600
Ge   22.88844000    3.05071000    2.56718000      0.360539   -0.61419400    0.00216200
Ge    0.13564000    2.97005000   12.17664000      0.813472    1.21770700    0.36842200
Ge   23.14506000    8.39811000    2.41650000      1.132844   -0.25284200    0.28499500
Ge    0.04086000    8.55408000   12.56290000     -0.171913    1.21568400   -0.31860600
Ge   23.13757000   14.48531000    2.36061000      0.089196   -0.49800900    0.45049100
Ge   23.07361000   14.54906000   12.43776000     -0.270195   -0.40105500   -0.27128500
Ge    0.13234000   20.27822000    2.40382000      0.169200    0.12438200   -0.47652800
Ge   23.00869000   20.72481000   12.35201000      1.929513   -0.13029900   -0.08781000
Se    1.18879000    1.46746000    1.66353000      0.628140   -0.59871900   -0.72909200
Se    1.36627000    1.92190000   10.44641000      0.249974   -0.44148800    0.65695700
Se    1.49058000    7.12699000    1.00512000     -1.240050   -0.00720200    0.12481000
Se    1.51283000    7.38561000   11.16695000     -0.100925   -0.74833600   -0.33488000
Se    1.44297000   12.77315000    1.59730000      0.129070    0.41177000   -0.14221700
Se    1.18612000   13.39756000   10.79445000     -0.011598   -0.27905300    0.32276700
Se    1.89771000   18.92435000    1.39151000     -1.035547   -0.08290500   -0.17208400
Se    1.16000000   19.19097000   11.00803000     -0.315781    0.05830800   -0.01721900
Se    7.58024000    1.34009000    1.10174000     -1.009076   -0.10238600    0.26396100
Se    7.02452000    1.72756000   10.84569000     -0.206731    0.01275100    0.05799900
Se    7.17629000    7.00043000    1.42943000     -0.279289   -0.05197000   -0.12576900
Se    7.26341000    7.17519000   10.97338000      0.429375   -0.70477700   -0.55664900
Se    7.40820000   13.18687000    1.41411000      1.026520   -0.43831400   -0.15665400
Se    7.31413000   13.46819000   10.96599000      0.327499   -1.07582200   -1.02380100
Se    7.50417000   18.43446000    1.48779000     -0.798895    0.53398700    0.21633500
Se    7.16046000   18.70389000   10.65249000     -0.024656    0.17934500    0.19173900
Se   12.94580000    1.79664000    1.06106000      0.050093   -0.59143900   -0.38514200
Se   12.84129000    1.97697000   10.68135000      0.237140   -0.30447500    0.56530600
Se   13.18809000    6.96066000    1.23690000     -0.327100    0.23779200   -0.39705200
Se   13.06820000    7.59682000   10.58371000     -0.761262   -1.01169200   -0.21821900
Se   13.19584000   13.48825000    1.31034000     -0.066625   -0.19884700   -0.31885900
Se   12.88833000   12.97738000   10.73227000      0.570441   -0.03578200    0.22053900
Se   13.13970000   19.23684000    1.24894000     -0.549174   -0.25917600   -0.19026700
Se   13.03523000   18.94778000   10.69107000     -0.221813    0.43566700    1.00767000
Se   18.92343000    1.54289000    1.28255000     -0.585290    0.23296900   -0.04223800
Se   19.02549000    1.42446000   11.52674000     -0.164350    0.21484200   -0.05126700
Se   18.99943000    6.81916000    1.37421000     -0.212039   -0.46696600   -0.87675700
Se   19.12040000    7.09537000   10.85563000      0.141052   -0.10858500   -0.05000300
Se   18.59244000   12.99490000    1.23246000      0.560500   -0.74280600   -0.88381800
Se   18.94997000   12.76836000   11.00532000      0.025497    0.05502400   -0.10476400
Se   18.95964000   18.78515000    0.99487000     -0.033383    0.32622400   -0.05786900
Se   18.92387000   18.56533000   11.24148000     -0.847288    0.32494600    0.20343300
Se    4.30546000    3.89143000    1.25652000     -0.672206    0.85165900   -0.60284500
Se    4.14206000    4.56559000   10.85103000     -0.088857    0.39810800   -0.43642000
Se    4.66694000   10.22933000    1.27570000     -1.132098   -0.74994500    0.47463300
Se    4.57832000   10.35204000   11.36965000      0.966446   -0.08396000   -0.38128400
Se    4.40504000   15.53552000    0.78289000      0.533413    0.38873000    1.14609800
Se    4.07737000   15.91720000   10.96178000      1.026769    0.06925600   -0.07695900
Se    4.67739000   21.51108000    1.37188000     -0.373251    1.07278400   -0.96795800
Se    4.23309000   21.78840000   10.83965000     -0.214204   -0.92020200    0.89856300
Se   10.06015000    4.67003000    1.41430000     -0.239080   -0.52985400   -0.24173000
Se   10.12768000    4.37446000   10.68366000     -2.497558   -0.61747100    1.17475900
Se   10.44944000   10.28623000    1.48002000     -0.378379    0.09005300   -0.43150600
Se    9.99956000   10.10137000   10.75418000     -0.126358    0.30665000   -0.19234800
Se   10.11988000   16.44205000    1.43999000      0.407638   -0.22417600   -0.03269900
Se   10.09127000   15.83385000   10.83780000      0.026944    0.84238300   -0.25108200
Se   10.14178000   21.82401000    1.70464000     -0.187613    0.81573800   -0.83723400
Se   10.30193000   21.94457000   11.05883000     -0.413071   -0.69230000    0.27444900
Se   15.77910000    4.39489000    1.17830000     -0.139960    0.36806700   -0.63908600
Se   16.22873000    4.32721000   11.16765000     -1.040927   -0.08949300   -0.19190600
Se   15.79973000   10.05098000    0.83209000      0.015748   -1.01725300    0.57575500
Se   16.08100000    9.77843000   10.94647000      0.650331   -0.13824200    0.49633400
Se   16.04050000   16.36139000    1.13056000     -0.982726   -0.85701300    0.30579500
Se   15.91203000   15.72483000   11.08707000     -0.566389   -0.36341600    0.05069500
Se   15.95138000   21.80781000    1.00047000      0.778556    0.31091100    0.03716100
Se   15.87452000   21.67649000   10.84233000      0.211215    0.76799200   -0.42481000
Se   21.60542000    4.32393000    1.10595000     -0.412940    0.42145200   -0.26646200
Se   21.79254000    4.38615000   11.06223000     -1.021809   -0.77315500    1.01316000
Se   21.85666000   10.07992000    1.39163000     -0.530303    0.17218700   -0.49779000
Se   21.76135000    9.85364000   11.14307000      0.431347    0.72550200   -0.14751700
Se   22.15578000   15.89300000    0.68054000     -0.248477    0.20310100    0.33120400
Se   21.71090000   16.36720000   11.46708000     -0.278441   -0.37968200    0.04534100
Se   21.96553000   21.69235000    1.01495000     -1.199499   -1.20654800    1.01719100
Se   21.55564000   22.21712000   11.30843000     -0.344087    0.36083100   -0.48386300
Se    1.23392000    4.50608000    8.73458000      0.380879    0.13965100   -0.28803500
Se    1.22974000    4.30881000   18.05703000      0.273522    0.03799300    0.00877000
Se    1.17780000   10.05779000    8.55675000      0.860547    0.05005400   -0.44396300
Se    1.92777000   10.11374000   18.61813000     -0.297548   -0.62605800    0.00140700
Se    1.17776000   16.14094000    8.60253000      0.208666   -0.65134600    0.02234400
Se    1.98540000   16.20662000   18.10124000     -0.958002    0.24411200    0.84648500
Se    1.36835000   22.01606000    8.98177000     -0.292998    0.47044000   -0.73912000
Se    0.93077000   21.87638000   17.76883000      1.084739   -0.37869900    0.28525400
Se    7.09674000    4.29950000    8.17346000      0.626036    0.22144700   -0.07099200
Se    7.27574000    4.25482000   18.54773000      0.020248    0.69547900   -0.38786900
Se    7.25011000   10.17538000    8.45863000     -0.747399    0.61814200    0.77769100
Se    7.73672000   10.32954000   18.54903000      0.407803   -0.95914300   -0.34893200
Se    6.91385000   15.92703000    8.28702000      0.515360    0.15260800   -0.15804100
Se    7.46443000   15.69680000   18.08570000     -0.376118    0.56491200    0.56866300
Se    7.16562000   21.98427000    9.08884000      0.229881   -1.08669200   -0.36795500
Se    7.72322000   21.56837000   18.19282000     -0.733224   -0.65205500    0.71081000
Se   13.10701000    4.30699000    8.30217000      0.074805    1.70781700    0.23508300
Se   13.12455000    4.44708000   18.23190000     -1.811283   -1.46213500    1.23635000
Se   13.07813000   10.32727000    7.98678000     -0.363695   -0.25582300    0.41565600
Se   13.19706000   10.44006000   18.67583000      0.557706   -1.44654900   -0.31419500
Se   13.01259000   15.66151000    8.52972000      0.039846    0.66093600    0.05181900
Se   12.53180000   16.26664000   18.19821000      0.090861   -0.06732800    0.10754800
Se   13.53537000   21.99014000    8.70645000     -0.145581   -0.15886800    0.00631200
Se   12.84331000   22.03262000   18.53211000      0.194621   -0.34259900   -0.12133900
Se   19.21439000    4.01021000    8.62957000     -0.288694    0.08025700   -0.13110900
Se   19.04468000    3.94403000   18.31539000      0.041546   -0.30224400   -0.13572600
Se   19.04996000    9.79557000    8.51528000      0.407397    0.77537000   -0.67383300
Se   18.79939000   10.14490000   18.71524000     -0.383866    0.13303500   -0.11908300
Se   19.26085000   15.79005000    8.66988000     -0.337403    1.12440300   -0.31960400
Se   19.22212000   16.14115000   18.18401000     -0.173796   -0.12891100    0.09585900
Se   19.11975000   21.58607000    9.01909000     -0.358874    0.80473500   -0.30953100
Se   18.82603000   21.85383000   18.59953000      1.088780   -0.26473000   -0.89401400
Se    4.31475000    1.50387000    8.14522000      0.031131   -0.02813200    0.26175700
Se    4.66239000    1.10945000   18.49796000     -0.496755    0.17797700   -0.03890400
Se    4.47938000    7.41379000    8.13863000      0.243011   -0.77806100    0.79677900
Se    4.39557000    7.40147000   18.61994000     -0.680832   -0.81532300   -0.72161800
Se    3.91566000   12.91335000    8.96197000     -0.064286    0.52352100   -0.73600800
Se    4.97648000   12.87464000   18.08827000     -0.332024    0.74203400    0.33484300
Se    4.08311000   18.86742000    8.32569000      0.390652    1.31642200    0.42009100
Se    4.91448000   18.79127000   18.34440000     -0.049366    0.79306300   -0.30668100
Se   10.12117000    1.43351000    8.67198000      0.290495    0.88024100    0.18147000
Se    9.97044000    1.54354000   18.02834000      0.324043    0.41188900    0.49137600
Se   10.11685000    7.19163000    8.43879000     -0.021709    0.07180200   -0.13222500
Se   10.13931000    7.35759000   18.20887000     -0.528760    0.07929500   -0.44586900
Se   10.10688000   13.09648000    8.32896000     -0.214599   -0.52029700   -0.03769800
Se   10.31064000   13.09590000   18.15254000      0.787813    1.10482800    0.93816300
Se   10.19549000   18.73841000    8.41988000     -0.039300    0.20514300   -0.00534900
Se    9.71160000   19.14924000   18.08316000      0.690408   -0.62686100    0.38254100
Se   16.61252000    1.67267000    8.54083000     -0.478651   -0.18837600    0.21700900
Se   16.12880000    1.49593000   18.01537000     -0.517951    1.02135500   -0.16605200
Se   16.31333000    7.10061000    8.38876000      0.513764    0.32363700    0.74917700
Se   16.24025000    6.93939000   18.10567000      0.187180    0.60933400    0.30311700
Se   16.08572000   12.73246000    8.84997000     -0.252827    0.76542400   -0.50997100
Se   15.73139000   13.33912000   18.01779000      0.690811   -0.15571300    0.26620800
Se   16.14042000   18.60277000    8.90527000     -0.043902   -0.84474900   -0.26346300
Se   16.01392000   18.79970000   17.63252000     -0.148429   -1.13460500    0.84543400
Se   21.46440000    1.62412000    8.28835000     -0.125507   -0.85254200   -0.05857500
Se   22.00452000    1.50396000   18.42191000     -0.976187    0.03032200   -0.28307900
Se   21.43013000    7.20671000    8.80490000      0.504966    0.24650800   -0.43975200
Se   21.47812000    7.26496000   18.39778000      0.577309    0.59251100    0.23436400
Se   21.75856000   12.96418000    8.30588000     -0.368209   -0.76410700    0.18051100
Se   21.94438000   13.06744000   18.52347000     -0.109927   -0.89139400   -0.04313400
Se   22.00248000   19.21296000    8.25242000     -0.959232   -0.86353600    0.06296600
Se   22.18399000   19.10828000   18.15558000     -0.482760   -0.34719700   -0.35061000
Se    1.38440000    1.45255000    5.84903000     -1.017642    0.36754500   -0.34893800
Se    1.64051000    1.62961000   16.04145000      0.283644    0.35819400   -0.56850000
Se    1.34847000    7.42997000    6.07097000      0.514902   -0.18565200    0.41337700
Se    1.32152000    7.28677000   15.92275000      0.210526   -0.20479400    0.05936600
Se    1.33993000   12.66648000    6.02631000      0.749565    0.33700100    0.09187700
Se    1.68627000   13.02579000   16.07282000      0.047736    0.18684400    0.02073400
Se    1.27813000   18.83905000    5.89105000     -0.299330   -0.21757300    0.37277500
Se    1.68758000   18.87801000   15.75017000     -0.186688   -0.20521300    0.15172000
Se    7.38177000    1.10153000    6.13986000     -0.802824    1.46965000   -1.34838500
Se    6.95072000    1.49420000   15.80854000     -0.808305   -0.08079700   -0.03335700
Se    7.31318000    7.03316000    5.61150000     -0.266608   -0.61160600    0.79535200
Se    7.55616000    7.17100000   15.77194000     -1.322710    1.00650700   -0.53679700
Se    7.03660000   12.73191000    5.79200000     -0.130421    0.53231900   -0.05114700
Se    7.21313000   12.77761000   15.67867000      0.339021    0.41038800   -0.11090300
Se    7.32947000   19.00292000    6.23530000     -0.587378    0.05513500   -0.36673400
Se    7.07304000   19.02128000   15.46324000      0.912557   -0.36422300    0.32229600
Se   13.32186000    1.40938000    6.45500000      1.071379   -0.39379000   -0.41068600
Se   13.05095000    1.62942000   15.71255000     -0.769575   -1.00962200    0.92279700
Se   13.27846000    7.16564000    5.63238000     -0.300091    1.25669100   -0.32771800
Se   13.13175000    7.51101000   16.21985000      0.226756    0.57285000   -0.94973400
Se   13.30068000   13.31775000    5.75802000     -1.452768   -0.16843200    0.32742500
Se   12.62807000   13.15801000   15.95952000      0.274327    0.27108100   -0.71284100
Se   13.52721000   18.56747000    6.23008000     -0.110791    0.02403200    0.39544800
Se   12.95874000   19.01314000   15.84800000     -1.272439    0.09244700    0.04740700
Se   18.67524000    1.15637000    5.90348000      0.546064    0.38010400    0.03411000
Se   19.09317000    1.35799000   15.85958000     -1.042954    0.45025600   -0.54362900
Se   18.70096000    7.21167000    6.14600000      0.468345   -0.22304300   -0.18158200
Se   18.70910000    6.82929000   15.91951000      0.121281    0.54526300    0.06907700
Se   18.62656000   13.00143000    6.14695000      0.459313    0.56660400   -0.58768100
Se   18.80229000   12.84356000   16.09989000     -0.728199   -0.43786700    0.53474600
Se   18.65579000   19.24506000    6.17793000      0.278317   -0.30178500    0.04718700
Se   18.64068000   18.97757000   15.82731000      1.088880   -0.65550400    0.13819500
Se    4.10024000    4.52491000    6.01804000      0.408066    0.59559600    0.78174500
Se    4.50129000    4.26718000   16.27008000     -0.378268    0.90121200    0.13700200
Se    4.53949000   10.12768000    5.90803000     -0.131691    0.21997000    0.51533300
Se    4.57210000   10.06800000   16.10291000     -1.312696   -0.42303600   -0.40684600
Se    4.15367000   15.94250000    6.20083000     -0.537135   -0.99065700   -0.65412800
Se    4.53369000   16.02697000   15.75245000      2.302256    0.49933800    0.17867700
Se    4.08278000   21.80843000    6.16660000      1.249256    0.63446200    0.68687700
Se    4.33819000   21.73122000   16.09284000      0.039086    0.07239800   -0.16023900
Se   10.28549000    4.42883000    5.90154000      1.081263   -0.97967100   -0.34343700
Se   10.10652000    4.29204000   15.71639000     -0.863426   -0.40958000    0.08554500
Se   10.11885000   10.06847000    6.24763000      0.168343   -0.59995800   -0.75065400
Se   10.62974000   10.35319000   15.84750000     -0.770144   -0.68236200   -0.17335800
Se   10.07606000   15.73052000    6.32239000     -0.105607   -0.04707800   -0.17687800
Se   10.19917000   15.69516000   15.82705000     -1.135888    0.40553900   -0.28097400
Se   10.22965000   21.68368000    6.91654000     -0.476407    0.02201600   -0.84147600
Se   10.06619000   22.15781000   15.48912000      0.850811    0.42597700    0.56583800
Se   15.92315000    4.23053000    6.43252000      0.503518   -0.67745900   -1.10145700
Se   15.89259000    4.27624000   15.83850000      0.188117    0.41898400   -0.01279400
Se   16.04594000   10.39874000    5.92234000      0.530720    0.24379800    0.40903200
Se   15.82199000   10.39207000   15.86510000      0.168348    0.29013800    0.29367300
Se   16.40703000   15.73735000    6.18130000     -0.272137    0.28755000    0.42799900
Se   15.74062000   15.55084000   15.94815000     -0.713448    0.60893300   -0.48227600
Se   16.49998000   21.76856000    5.87126000     -0.772558    0.37197100    0.65951700
Se   16.04702000   21.98693000   15.98497000     -1.438407   -0.30433700   -0.21518700
Se   21.72783000    4.61718000    5.86926000      0.316750   -0.77113100    0.01779700
Se   21.93087000    4.46048000   15.89025000     -0.461948   -0.49990100   -0.08124100
Se   21.70385000    9.78294000    6.06450000     -0.097035    0.42139500   -0.31857900
Se   21.66363000   10.00696000   16.33935000     -0.463322   -0.16424000   -0.28029300
Se   21.56814000   16.43674000    5.60170000     -0.223220   -0.31210400    0.76796700
Se   21.43881000   15.87531000   15.74156000      1.897211   -1.46638000   -1.04578000
Se   21.74903000   22.00733000    5.71579000     -0.350737   -0.45205000    0.70037100
Se   21.42328000   21.54427000   16.22247000      0.971378    0.32169600   -0.29272600
Se    4.31214000    1.53772000    3.69678000      0.366702   -2.02752800   -0.12110900
Se    4.51271000    1.90406000   13.28165000     -0.496902   -0.72136900    0.40457200
Se    4.45375000    7.04862000    3.84649000      0.238764    0.18978200   -0.50863500
Se    4.33404000    7.48781000   13.72876000      0.418395   -0.67634400   -0.78840900
Se    4.24769000   13.07234000    3.64269000      0.224249    0.37495500   -0.00136400
Se    4.30088000   13.01909000   13.40871000      0.046376    0.41763100    0.40215700
Se    4.19421000   18.66410000    3.60475000      0.481980    0.78869600    0.50613100
Se    4.28306000   19.04427000   13.16053000      1.118505   -0.12946000   -0.68523400
Se    9.91336000    1.52287000    3.43257000      0.965975    0.40316600    0.29798900
Se    9.65849000    1.67854000   12.85230000      0.270437    0.31824200    0.74622100
Se   10.33162000    7.27448000    3.53468000     -0.172500    0.19730400    0.21097600
Se   10.47569000    7.26382000   13.26305000     -0.257199   -0.11108800    0.21658500
Se   10.50575000   13.19351000    3.66039000     -0.797130    0.41551300    0.55087000
Se   10.02211000   12.92034000   12.96065000     -0.481411    0.10750600    0.79767200
Se   10.55442000   19.02890000    4.19758000     -0.099905   -0.44228900   -0.00833000
Se    9.92709000   18.92561000   13.15837000     -1.305809   -1.52066000    1.02320300
Se   15.89759000    1.44643000    3.51726000     -0.074723   -0.38850300    0.13760500
Se   15.69753000    1.34879000   13.29493000      0.531772    0.75273200   -0.07960200
Se   16.12040000    7.23391000    3.42523000     -0.469575    1.15888800   -0.01109800
Se   16.46546000    6.87820000   13.54610000     -1.279994    0.82019300    0.68074600
Se   15.70953000   13.42546000    3.20322000      0.302899    0.13745100    0.25231500
Se   15.86338000   12.68240000   13.33627000     -0.142917   -0.27719300   -0.17165200
Se   16.06195000   18.96321000    3.47294000     -0.068520   -0.10743700    0.10749400
Se   15.55245000   18.75304000   13.58099000      0.211507    1.21453900   -0.36471000
Se   21.30719000    1.61182000    3.69618000      1.227058   -0.73261400   -0.81698600
Se   22.08571000    1.46537000   13.39781000     -0.841772    0.00417200    0.64183000
Se   21.86250000    6.87284000    3.85695000     -0.014397    0.70542800   -0.69427400
Se   21.98981000    7.09844000   13.84048000     -0.837876    0.10487400    0.42880300
Se   21.55763000   12.92945000    3.56565000      0.022750    0.99783400   -0.07621300
Se   21.52128000   12.76576000   13.38511000      0.487100    1.09580100    0.00314100
Se   21.70212000   18.95656000    3.50928000      0.105852   -0.83007800   -0.32941800
Se   21.92850000   19.18927000   13.70041000     -0.368436   -0.98010500    0.06537300
Se    1.32594000    4.38941000    3.61050000      0.132119   -0.12218500    0.24689800
Se    1.51482000    4.55033000   13.63522000     -0.584792   -0.07971900   -0.72474100
Se    1.47809000    9.95736000    3.53629000     -0.051075   -0.31404400   -0.18777900
Se    1.31706000   10.27995000   13.72710000     -0.649992    0.48930800   -0.55850100
Se    1.03306000   15.92745000    3.98940000     -0.080655   -0.07009700   -0.81836500
Se    1.41583000   15.86612000   13.68985000     -0.386080    0.37645100   -0.10826300
Se    1.50791000   21.71457000    3.62596000      0.303583    0.45229500    0.51110200
Se    1.39777000   21.99533000   13.71596000      0.021186   -0.20370400   -0.36765300
Se    7.31836000    4.17379000    3.53120000     -0.643332    1.18529900    0.03117200
Se    7.23224000    4.74271000   13.28597000      0.466097    0.23080900    0.55737100
Se    7.23985000   10.19368000    3.66067000      0.666109   -0.33694100    0.31864800
Se    7.45509000   10.09929000   13.93147000      0.048193   -0.83302500   -0.88850500
Se    7.59659000   15.99337000    3.65891000     -0.957094    0.00928400   -0.33304800
Se    7.17398000   16.02792000   13.48003000      0.431017   -0.07384400    0.19816100
Se    7.42661000   21.59276000    3.73582000      0.103069    0.32876100    0.35997500
Se    7.63568000   22.13365000   13.10583000     -0.825399   -1.48133400   -0.19129200
Se   13.36373000    4.47770000    3.70211000     -1.425042   -0.06635100   -0.93375900
Se   12.78274000    4.83083000   13.53077000      0.593690   -1.37247000    0.16606700
Se   13.20547000   10.27639000    3.49996000     -0.396555    0.41672600   -0.18810800
Se   13.51860000    9.90829000   12.93814000      0.361479    0.69107000    0.88482500
Se   13.29232000   16.60434000    3.89269000     -0.981449   -0.89347100   -0.59616000
Se   12.87438000   15.77663000   13.42208000      0.813942    0.55282300    0.18277900
Se   13.50191000   21.88079000    3.65429000     -0.271678   -0.13062000    0.67293600
Se   12.92851000   21.88504000   13.17043000      0.421129    0.00694600    1.07213200
Se   18.60166000    4.48062000    3.70380000     -0.240340   -0.18613700   -0.15313400
Se   18.78369000    4.38574000   13.81544000      0.675729    0.15374600    0.40897600
Se   18.66942000    9.99042000    3.59734000      0.619669   -0.22772300   -0.35275000
Se   19.08480000   10.01705000   13.56122000     -0.617867   -0.53012300   -0.35021400
Se   18.66896000   16.12528000    3.69613000      0.774469   -0.82670300    0.16948100
Se   18.29850000   15.70399000   13.73635000      0.793009   -1.17928600   -0.42120600
Se   18.76743000   21.79246000    3.61515000      0.126683    0.62166500   -0.50879600
Se   18.52700000   21.61585000   13.26308000      0.138796   -0.13025600    0.05616300
