384
23.23808000 23.23808000 19.51320000
Ge    5.94364000    5.66288000    9.83133000     -1.582010    0.15364800    0.76734100
Ge    5.38394000    6.04292000   19.31251000      0.572893    1.03904700   -0.05057700
Ge    5.78330000   11.95684000    9.84313000     -0.261457   -0.07199200   -0.29322700
Ge    5.76755000   11.54503000    0.04397000     -1.370487   -0.17987100    0.26319700
Ge    6.14529000   17.64004000    9.87400000     -0.040543   -0.71737900    0.52546000
Ge    5.50460000   17.32886000    0.03961000     -0.430830   -0.60942800   -0.12420200
Ge    5.90429000   22.97399000   10.16557000     -0.721053   -0.42809500   -0.58492300
Ge    5.48461000    0.46252000   19.49324000      0.316573   -0.60556500   -0.02949500
Ge   11.36902000    6.11180000   10.07085000     -0.784119   -0.53922600   -1.76654700
Ge   11.53414000    5.86358000   19.48592000      0.336429    0.19312500    0.10732700
Ge   11.55632000   12.28301000    9.94026000      0.079915   -0.62024900    0.33093700
Ge   11.83379000   11.68699000   19.09929000     -0.505621   -0.72321500    0.48191900
Ge   11.31013000   17.67288000    9.87387000      0.743381   -0.79404300    1.06883000
Ge   11.98802000   17.50111000    0.08863000      0.340451   -1.07223200   -0.00175900
Ge   11.58466000   22.98209000    9.71295000     -0.766064    0.43333700    0.46090600
Ge   11.99262000    0.14486000   19.42864000     -0.401173    0.14127800    0.82949400
Ge   17.29797000    5.41598000    9.64248000     -0.575920    0.59142700   -0.47884200
Ge   17.47350000    5.58222000   19.39017000      1.925682   -1.03893900    1.13752400
Ge   17.54237000   11.35832000    9.78390000     -0.059612    0.45052500   -0.19299500
Ge   17.22376000   11.37053000   19.39949000     -0.530059    1.04415900   -0.79955000
Ge   17.33088000   17.25301000    9.52977000      1.172690    1.09501000   -1.11396600
Ge   17.62353000   17.29585000    0.50568000     -0.276334    0.40509900   -1.04736000
Ge   17.42033000    0.19187000    9.56863000      0.992128    0.05884600   -0.46163900
Ge   18.20415000   23.17754000   19.48790000     -0.910085    0.97552900   -0.16702100
Ge   22.92214000    5.73655000    9.74614000     -0.521451   -0.00379900    0.19380600
Ge   23.13187000    5.93786000    0.04792000     -0.809903   -0.25717800   -1.41664500
Ge    0.31893000   11.71562000    9.64025000     -0.682527   -0.97444400    0.60039600
Ge   23.04412000   11.43550000   19.38691000     -0.872062    0.70709900    0.27310500
Ge    0.53442000   17.66278000    9.52489000      0.913329   -0.83864300    0.60165600
Ge    0.02644000   17.57279000    0.01780000      0.604931   -0.87636900    0.63473600
Ge   23.14968000   23.06642000    9.65852000      1.247942   -0.15046700    0.23412400
Ge    0.21819000    0.00969000    0.39314000     -0.848485    0.25284400   -1.21477100
Ge    2.68534000    5.68678000    7.57374000      0.217620    0.95456900   -0.10022400
Ge    2.40420000    6.05117000   16.83731000      1.219714   -1.01670400    0.45184700
Ge    3.18950000   11.60701000    7.33404000     -0.183220    0.20787300    1.08162700
Ge    2.68424000   11.77304000   16.87362000      0.134391   -0.59213700    0.43561300
Ge    3.58206000   17.47699000    7.20736000     -0.325798    0.91799800   -0.26500300
Ge    2.83385000   17.24182000   16.95329000     -1.300371   -0.59995300    0.37903900
Ge    3.30502000   23.17465000    7.52018000     -0.880675    1.47379200    1.46683300
Ge    2.68213000    0.10278000   17.05749000      0.546782   -0.18424900    0.71959600
Ge    8.76806000    5.93494000    7.39378000     -0.553219   -0.16167600   -0.23806300
Ge    8.61898000    5.91260000   16.85780000      0.992899    1.04690400    1.25985500
Ge    8.88425000   11.92780000    7.16480000      0.186272   -0.61076300    2.39748100
Ge    8.50714000   11.62480000   16.99288000      0.930437   -0.43184100    0.42563300
Ge    8.70068000   17.11318000    7.07049000      0.295589   -0.09825300    0.43232300
Ge    8.41227000   17.29380000   17.74077000      0.066773   -0.86972800   -0.86003100
Ge    8.54250000   23.21582000    7.32308000      0.680559    1.03906500   -0.44799000
Ge    8.89829000    0.19283000   17.41803000      0.033895    0.06909300   -0.12073300
Ge   14.22056000    5.97497000    7.13609000     -0.925964    0.53718300    0.75868600
Ge   14.85033000    5.62132000   16.98746000     -0.406461    0.61727900    0.72906400
Ge   14.53586000   11.74308000    7.37068000      0.154038   -0.88695200    0.72077800
Ge   14.38400000   11.41923000   16.61670000      0.443824   -0.14167000    0.77598600
Ge   14.40102000   17.30370000    7.37435000     -0.129303    0.52074500   -0.79801600
Ge   14.83164000   17.55395000   17.36234000      1.342675   -1.15303800    0.63567100
Ge   14.68430000   23.01461000    7.10517000      0.551484    0.13353800    0.33052700
Ge   14.90359000   23.22569000   17.31495000      0.582414   -0.43942600   -0.99376400
Ge   20.14253000    5.81584000    7.17555000     -0.459995    0.95877100    0.18929200
Ge   20.42154000    6.00591000   16.87109000      1.121653   -1.45381500    0.22154200
Ge   20.54373000   11.43451000    7.44851000      0.070696   -1.07166400    0.65916700
Ge   20.07665000   11.59333000   16.80319000     -0.111538    1.12978100   -0.48863800
Ge   20.64858000   17.62203000    7.11977000      0.053277   -0.06806400   -0.67447900
Ge   20.43959000   17.72896000   17.20278000      0.471819    0.02001500    1.53697000
Ge   20.59667000    0.03946000    7.29362000     -0.705938   -0.53933400   -0.40641400
Ge   20.63881000   23.00824000   17.13739000     -0.311193    0.12437700   -0.46835500
Ge    3.17352000    2.91818000    5.00087000     -0.716388   -0.54491100   -0.31798500
Ge    2.66980000    2.77795000   14.59916000      0.587449   -0.11919200    0.19607300
Ge    3.06625000    8.72488000    4.90869000     -1.975152    1.69636300    1.21057200
Ge    2.78912000    8.84054000   14.35065000      0.016443    1.08707900    1.27134600
Ge    3.04564000   14.32442000    5.05414000      0.805645    1.26050100   -0.55899100
Ge    2.59261000   14.67640000   14.37095000     -0.429039   -1.01627900   -0.59338000
Ge    2.94967000   20.56776000    5.19678000      0.285292   -0.49636800   -1.13862700
Ge    3.16003000   20.03382000   14.76570000     -0.444505    1.38413300   -0.38638000
Ge    8.61542000    2.83843000    4.78047000     -0.089979   -0.19725200    0.32997500
Ge    8.81290000    3.04012000   14.64645000     -2.506344    0.39789900    1.03027800
Ge    8.81679000    9.00596000    4.75911000     -1.457577    0.04218800    0.68531300
Ge    8.67238000    8.90510000   14.54603000      0.536274    0.28422200   -0.81396500
Ge    9.05676000   14.39886000    4.48959000     -0.128548    0.81844300    0.47822000
Ge    8.58315000   14.47142000   14.74105000      0.053366    1.04612000    0.62042200
Ge    8.70887000   20.19188000    4.79823000     -0.263313   -0.03463300   -0.60634300
Ge    9.00879000   20.18396000   15.37487000      0.222880   -0.64602500   -0.79701200
Ge   14.40099000    2.75486000    4.82264000      0.262762    0.63672000   -0.08854300
Ge   14.68387000    2.73153000   14.69818000     -0.464867   -0.95944400   -0.92997900
Ge   14.24996000    8.82109000    4.94364000     -0.502688    0.51409300    0.06282100
Ge   14.69385000    8.56363000   14.41854000     -0.190407   -0.62366200   -0.27680200
Ge   14.31366000   14.32125000    4.87363000      1.848341    1.08487000   -0.43097500
Ge   14.71634000   14.72602000   14.77412000      0.725687    0.45853800   -0.48633400
Ge   14.28341000   20.07597000    4.76422000      0.838735    0.76947900   -0.10713300
Ge   14.56850000   20.39980000   14.84867000     -0.177498    0.73258600   -0.08500600
Ge   20.14858000    3.05305000    4.85888000      1.355870   -0.46336100    0.02241300
Ge   20.11612000    2.74447000   14.82221000      0.476623    1.96855700   -0.67590400
Ge   20.33820000    8.82874000    4.74124000     -0.434018   -1.27299100    0.23682000
Ge   20.25508000    8.51696000   14.39093000      0.123150    0.30818800   -0.39499500
Ge   20.14689000   14.37797000    4.93982000      0.420290   -0.57769100   -0.61526400
Ge   19.97069000   14.93697000   14.95080000      0.022699   -0.39388900   -1.39772100
Ge   20.47272000   20.75530000    4.82951000      1.407162   -1.78899000    1.44276700
Ge   20.35656000   19.90202000   14.54784000      0.909913    1.65091600   -0.84298300
Ge    5.64819000    3.11314000    2.45345000      1.624044   -0.19478300   -0.12715200
Ge    5.77263000    2.63109000   12.36515000     -0.382792    0.75125700   -0.00357300
Ge    5.74072000    8.91214000    2.44967000     -0.865757    1.11728100    0.71643200
Ge    5.62387000    8.53532000   12.29428000      0.695929    0.81495500   -0.27991400
Ge    5.85602000   14.50546000    2.43256000      0.907987   -0.95633500    1.06672600
Ge    6.02357000   14.88057000   12.27559000     -1.684795   -0.17375100   -0.51745900
Ge    5.65674000   20.46313000    2.33554000      0.972746   -0.10009800    0.62077100
Ge    6.19227000   20.08992000   12.62632000      0.049204   -0.32475100    0.09549300
Ge   11.68845000    2.83280000    2.38282000     -0.435466    0.30720000    1.01303300
Ge   11.48727000    3.00613000   12.24311000      0.808880    0.94030700   -0.46883800
Ge   11.62603000    8.96029000    2.34800000     -0.768878   -0.92828600    0.19195500
Ge   11.57619000    8.99649000   12.40419000     -0.646743    1.18301900    0.16432300
Ge   11.71417000   14.20413000    2.16372000      0.587475    1.23378200    0.30786700
Ge   11.71361000   15.05486000   12.52751000     -0.067842    0.35257500   -0.57372500
Ge   11.60754000   20.30490000    2.12035000     -0.603068    0.53471700    0.41482400
Ge   11.49255000   20.43006000   12.61982000     -0.320752   -0.75450700   -1.02762100
Ge   17.22170000    2.70903000    2.53589000     -0.641507   -0.69076700   -0.21860700
Ge   17.23381000    2.57606000   12.09208000      1.569412    1.35271800   -0.19098800
Ge   17.19178000    8.61468000    2.58616000     -0.146019   -0.09783000   -0.87467500
Ge   17.32853000    8.52854000   11.95658000     -0.092021   -0.65329500    0.05513900
Ge   17.20906000   14.27522000    2.34954000     -0.891069   -0.47887800   -0.13160100
Ge   17.24513000   14.52864000   11.99731000     -0.295605   -0.31353200    0.27100200
Ge   17.68531000   20.28084000    2.58662000     -0.315960    0.32094000   -0.26356300
Ge   17.20962000   20.38477000   12.07334000      0.302982   -0.54141800   -0.64907400
Ge   23.21766000    2.97220000    2.40546000      1.013627    0.41383500    0.50130700
Ge   23.19508000    2.58069000   12.22803000     -0.580241    0.89715300    0.30555000
Ge   22.99246000    8.72466000    2.34778000      0.064040   -0.22957200    0.90755000
Ge   23.18858000    8.62334000   12.14513000      0.122874    1.37242800   -0.19717500
Ge   23.19939000   14.13904000    2.42977000      0.591466    1.07798500    0.01220800
Ge   22.98385000   14.64155000   12.08283000      0.452023    0.11188000   -0.22427200
Ge    0.35437000   20.41752000    2.73026000     -0.481621   -1.24147000   -0.32213600
Ge    0.05667000   20.28293000   12.17471000      0.140037   -0.25821400   -0.57618400
Se    1.65066000    1.59922000    1.29535000     -0.029105    0.48031100    0.22831200
Se    1.39729000    1.26879000   10.90849000      0.145192   -0.29333100    0.15012200
Se    1.28757000    7.44168000    1.05663000      0.738948    0.44167500    0.49029000
Se    1.28075000    7.06390000   11.02339000      0.376674   -0.63098300   -0.71977400
Se    1.39464000   12.82791000    1.03487000     -0.142758    0.13931500    0.13940000
Se    1.50165000   13.22063000   10.91992000     -0.182906    1.02339400    0.82272300
Se    1.72037000   18.64652000    1.38296000     -0.843477    0.79954300    0.31224800
Se    1.83410000   19.21787000   10.87104000     -0.867321   -0.54447800   -0.04146100
Se    7.12663000    1.97918000    0.90720000     -0.539684   -0.32156700    0.43593200
Se    7.22697000    0.90917000   11.68549000      1.178442    0.16016600    0.03462300
Se    6.89398000    7.63365000    0.96237000      0.817325   -1.08829600   -0.76585500
Se    7.22834000    7.11665000   11.30761000      0.331437   -0.35881900   -0.41044200
Se    7.28654000   12.91989000    1.24150000     -0.481711    0.29709800   -0.05456400
Se    7.29902000   13.27486000   11.12131000      0.480510   -0.15088000    0.17613200
Se    6.95775000   18.76027000    1.09422000      0.747795    0.83560700    0.62433000
Se    7.77646000   18.69650000   11.26418000     -0.796327    0.73635500    0.35385400
Se   13.32285000    1.33678000    1.59068000     -0.213086   -0.38704900   -1.01631800
Se   12.80459000    1.45747000   11.05459000      0.409871   -0.53700100   -0.46239100
Se   12.98169000    7.20795000    1.48675000      0.246696   -0.56418100   -0.60635700
Se   12.79634000    7.52627000   11.12163000      2.097642    0.01650100   -0.08340300
Se   13.26560000   12.80766000    1.17000000      0.272503   -0.19792900   -0.73037300
Se   13.09170000   13.60217000   11.26224000      0.021067   -0.53865700   -0.38195600
Se   13.36504000   19.29197000    0.89973000     -0.200118   -0.87314100    0.01000200
Se   12.87875000   19.18486000   10.96184000     -0.501621   -0.31433800    0.30439100
Se   19.00981000    1.57239000    1.52456000      0.993539   -0.02075500   -0.41126700
Se   18.88693000    1.33659000   10.96692000      0.286222    0.39984600    0.12814600
Se   18.63246000    7.20341000    1.32355000      0.587089   -0.45989400   -0.07918400
Se   18.75897000    7.05327000   10.63772000     -0.112415    0.03658300    0.25560700
Se   18.60383000   13.07416000    0.73890000      0.194924    0.50666200    0.81996200
Se   18.79584000   12.95132000   11.10464000      0.181903   -0.12762200   -0.25142600
Se   19.20834000   18.63316000    1.80340000     -0.183822   -0.16675000   -0.36145700
Se   18.64156000   18.93716000   10.59575000      0.047176    0.24926200    0.76373800
Se    4.29216000    4.62706000    1.32203000     -1.575639    0.29162500   -0.10931200
Se    4.32180000    3.99987000   10.99875000      1.024539    0.62986100   -0.15058100
Se    4.02834000   10.24788000    1.38637000      1.066214    0.38569400   -0.34777400
Se    4.49638000   10.05057000   10.80519000     -0.206254    0.47355300   -0.19702000
Se    4.26936000   15.87564000    1.44725000     -1.384227    0.03743900    0.08576800
Se    4.47017000   16.17684000   10.90143000      1.021143    0.00322400    0.26495700
Se    4.09993000   21.71491000    1.17206000      0.219547    1.36804100   -0.89201800
Se    4.47398000   21.35195000   11.46221000      0.820738    0.38676400   -0.46243600
Se   10.11838000    4.35742000    1.30540000      0.245691   -0.04898600   -0.30163200
Se    9.93040000    4.52742000   11.17496000      0.229426   -0.17048900    0.02920600
Se   10.33168000   10.07028000    0.73382000     -0.104299    0.55395600    0.10152600
Se   10.21162000   10.63980000   11.22380000     -0.043770   -0.12295900   -0.00240300
Se   10.43946000   15.80447000    1.00040000      0.032391    0.35479100    0.10144000
Se    9.95263000   16.12000000   11.30761000      0.915442    0.62741100   -0.67601800
Se   10.34161000   21.97390000    0.94373000     -0.111316   -0.00611200    0.07079800
Se    9.90647000   21.49913000   11.03654000      0.904633    0.61923100   -0.09541500
Se   16.00573000    4.19662000    1.14717000     -0.659542    0.04058600   -0.04195600
Se   15.74548000    4.06079000   11.02416000      0.107304    0.42912700   -0.69436500
Se   15.82479000    9.83686000    0.90708000     -0.136073   -0.24731600    1.00036500
Se   15.87918000    9.99011000   10.73392000     -0.306206   -0.12538100    0.25896300
Se   15.75201000   16.06545000    1.49274000      0.822460   -0.26543100   -0.19269100
Se   15.80407000   15.90162000   10.53238000     -0.426883   -0.93553900    0.91230900
Se   16.62237000   21.85514000    1.03233000     -1.170266   -0.82336800    0.83733600
Se   16.02377000   21.93982000   10.56594000     -1.227672   -1.10026500    1.11594400
Se   21.72280000    4.30336000    1.06749000     -0.119329   -0.09963000    0.36197800
Se   21.64080000    4.07398000   11.03577000     -0.014620    0.17643100   -0.09877200
Se   21.45535000   10.26184000    1.35445000      0.548313   -0.04287300   -0.67249100
Se   21.97834000   10.30548000   10.96593000     -0.119400    0.19849700   -0.41269800
Se   21.94612000   15.89396000    1.28515000     -0.313696    0.07701600    0.00081200
Se   22.05211000   16.32438000   10.52845000     -0.227888   -0.38575600    0.13305600
Se   22.07284000   22.01263000    1.78976000     -0.336563   -0.45301900   -0.08141200
Se   21.72639000   21.62903000   10.92567000     -0.017769   -0.00161200   -0.04355800
Se    0.83615000    4.25582000    8.23879000      0.814567    0.19574300    0.12921200
Se    1.16491000    4.43561000   18.18254000      0.401654    0.45916200   -0.29599200
Se    1.83743000   10.15157000    8.78531000      0.076260    0.23436500   -0.56095100
Se    1.23449000   10.14448000   18.11002000      0.642704   -0.22980500   -0.62677900
Se    2.03364000   16.16457000    8.32358000     -0.706784   -1.04908900    0.64564300
Se    1.52571000   15.85125000   18.52156000     -0.301579    1.12312100   -0.47275400
Se    1.89017000   21.66957000    8.77490000     -0.707681    0.77435900    0.00317800
Se    1.24617000   21.78713000   18.35987000      0.528412    0.43863300    0.02227500
Se    7.17586000    4.24541000    8.44318000      0.690559    0.71975200   -0.21299300
Se    6.95017000    4.80567000   18.04704000     -0.294762   -1.30721300    0.27787600
Se    7.29769000   10.62392000    8.57224000      0.311522   -0.26316500   -0.51257200
Se    7.42723000   10.11445000   18.58632000      0.005293    0.03379100   -0.75597600
Se    7.38531000   15.93451000    8.77365000      0.215082   -0.32629000   -0.80314600
Se    6.86008000   15.66266000   18.61570000      0.776171    0.25252900   -0.37297200
Se    7.23518000   21.65871000    8.50699000     -0.136425    0.01802300    0.74918700
Se    7.16588000   22.18698000   18.50143000     -0.209704   -0.18317600    0.22617000
Se   12.86280000    4.69782000    8.66203000     -0.360873   -0.16181800    0.38783400
Se   13.09934000    4.41654000   18.14648000     -0.365615   -0.07410100    0.45204400
Se   12.87486000   10.53386000    8.95135000      0.521780    0.69157300   -0.79345300
Se   13.26009000    9.96698000   18.21384000     -0.477384    0.18780200   -0.73561600
Se   12.92915000   16.19810000    8.78744000     -0.340254   -0.87191200    0.35424700
Se   13.10701000   15.97546000   18.17943000      0.675218    0.34226800   -0.05552600
Se   13.37673000   21.70337000    8.67757000     -0.264576   -0.15009600   -0.01240900
Se   13.37269000   21.79797000   18.37244000      0.176891   -0.25710100   -0.03847400
Se   18.75581000    4.16414000    8.19603000     -0.045031   -0.16466700    0.37993600
Se   19.22310000    4.36908000   18.06925000     -0.744897    0.01436800    0.81894800
Se   18.99742000    9.84837000    8.70001000      0.561123    0.71917300   -0.39013800
Se   18.72851000   10.17593000   18.04595000     -0.022613   -1.20836500    0.16053700
Se   19.10572000   16.15979000    8.05265000     -0.857877   -0.68983600    1.05860600
Se   19.35483000   16.11629000   18.52490000     -1.073852    0.16810800    0.88643500
Se   18.97148000   21.92775000    8.61935000      0.919860   -0.27919800   -0.82721700
Se   19.41624000   21.44394000   18.52186000      0.266681    0.26292500   -0.42962700
Se    4.62732000    1.49821000    9.08350000     -0.482872   -1.13942100   -0.63465000
Se    4.13970000    1.90790000   18.05316000     -0.300491   -1.17789100    0.00955900
Se    4.02138000    7.13830000    9.19707000      0.347122   -1.02593500   -0.89621000
Se    3.88297000    7.53549000   18.17447000     -0.160596   -0.53896500   -0.21086200
Se    4.39055000   13.42569000    8.42849000      0.074320   -0.80682300    0.42302000
Se    4.15019000   13.06429000   18.36149000      0.410224   -0.44892200   -0.18239100
Se    4.66279000   18.99454000    8.70680000     -0.012741    0.83171400   -0.42977300
Se    4.34219000   18.63966000   17.98402000      0.281432    1.16322200    0.49770700
Se   10.43862000    1.39898000    8.29467000     -0.793336   -1.02739200    0.06832000
Se   10.63429000    1.69959000   18.19933000     -0.133757   -0.25745900    0.16260400
Se    9.96294000    7.62057000    8.63792000      0.195449   -1.13479300    0.43266400
Se   10.07599000    7.38401000   18.31333000     -0.199309   -0.65860900   -0.29086500
Se    9.81626000   13.50554000    8.79750000      0.578957   -0.13614200   -0.39168200
Se   10.26134000   13.11923000   17.88986000      0.099544   -0.07000000    0.10721500
Se   10.03031000   18.69269000    8.30901000     -0.788547    1.32312900   -0.94694900
Se   10.14877000   18.58911000   18.70901000     -0.679244    1.46148700   -0.29214800
Se   16.20194000    1.46226000    8.03961000     -0.620726    0.09053100   -0.03206100
Se   16.53127000    1.42269000   18.18718000      0.442715   -0.23839900    0.80793400
Se   16.08040000    7.04557000    8.15599000      0.289826    0.03528800    0.77525700
Se   16.17808000    7.12482000   18.46266000     -1.539312    0.56621000   -1.56855000
Se   16.39656000   12.95060000    8.38471000     -0.657504   -0.00148500   -0.04183000
Se   15.60133000   12.76405000   18.19396000      0.713113    0.14774000   -0.06471000
Se   16.02473000   18.78894000    8.20587000      0.116093    0.11515700    0.26087500
Se   16.14922000   19.08810000   18.68977000      0.349112   -1.10295700    0.16154100
Se   22.00768000    1.51023000    8.44626000      0.115498    0.10941700    0.23487700
Se   21.74063000    1.36018000   18.57361000      0.232141   -0.21826700   -0.07074100
Se   21.51715000    7.30362000    8.45584000      0.515501   -0.48421700    0.60210500
Se   21.81453000    7.45690000   18.05621000      0.477866   -0.06923800    0.80083600
Se   22.00258000   13.01586000    8.43047000     -0.132968    0.28506900   -0.05335300
Se   21.61218000   12.97046000   18.03321000      0.226377   -0.17671600    0.45441000
Se   22.44305000   18.89856000    8.10611000     -1.139278    0.92530100   -0.41342400
Se   22.05802000   19.20926000   18.25400000     -0.063524   -0.30105900   -0.13683800
Se    1.78940000    1.29518000    6.19919000      0.125960    0.41512500   -0.02089000
Se    1.20357000    1.13971000   15.59147000     -0.385570    0.43145500   -0.08940100
Se    1.52777000    7.56173000    6.36334000      0.161963   -0.55652900   -0.11096400
Se    1.21726000    7.47085000   15.45769000     -1.176947    0.24157900    0.08425400
Se    1.68397000   12.74377000    5.95498000     -1.376269   -0.48559300    0.72630400
Se    1.11922000   13.20674000   15.76717000      0.345560    0.11136200   -0.57340800
Se    1.79746000   19.03898000    6.51298000      0.329309   -0.64205100   -0.38963300
Se    1.47301000   18.60802000   15.51523000     -0.597384   -0.23221400    0.51413000
Se    7.02697000    1.44520000    5.96624000      0.636093   -0.40016600    0.52451100
Se    7.47350000    1.52608000   16.12336000     -0.168476    0.58501600   -0.74843400
Se    7.36206000    7.38153000    6.07398000      0.128802    0.31631000   -0.12991200
Se    7.34648000    7.44153000   15.71448000     -1.437735   -0.17862200    0.06666000
Se    7.56331000   13.03127000    5.74210000     -1.416541    1.16662100   -0.76538200
Se    6.99292000   12.88172000   15.70552000      0.025443    0.43857400   -0.32104400
Se    7.22993000   18.47504000    5.81779000     -0.071189    0.86855900   -0.24273200
Se    7.28365000   18.78014000   16.24166000      0.096591    0.21205300    0.54616800
Se   13.14170000    1.28797000    6.14312000     -0.946123    0.00780700    0.09865600
Se   13.35064000    1.34854000   16.03234000     -0.037697   -0.13683100    0.32572500
Se   12.64687000    7.69781000    6.35477000      0.585885   -0.36912600   -0.26131000
Se   13.49204000    7.34363000   16.12369000     -0.794005    0.32050200   -0.59634300
Se   12.91582000   13.02700000    6.12706000     -0.470187   -0.67026600    0.83186800
Se   13.13118000   13.39533000   15.88552000     -0.492141   -0.48297000    0.21035700
Se   12.91242000   18.67089000    5.96171000     -0.341655   -0.48773900    0.47166800
Se   13.39521000   18.62895000   16.01493000     -1.718844    1.65481700   -0.74891300
Se   19.03059000    1.46026000    6.09993000     -0.452058   -0.80826800    0.40917000
Se   18.82726000    1.10488000   15.76004000      0.355618   -1.04800400    1.05627400
Se   18.76268000    7.54805000    6.08152000      0.056051   -0.49538900   -0.25623300
Se   18.83289000    7.31739000   15.88495000     -0.866336    0.43512700   -0.85103100
Se   19.03756000   12.64772000    6.23946000     -1.018335    0.85065800   -0.73552600
Se   18.43220000   13.34781000   15.82612000      0.900185   -0.66403500    0.44341600
Se   19.13194000   19.15947000    6.08791000      0.300893    0.07298300    0.20678300
Se   18.91482000   18.79643000   15.90909000     -1.592098   -0.17919800    0.16723500
Se    4.37741000    4.54199000    6.20845000      0.095177    0.07069900    0.40969800
Se    3.95128000    4.62342000   15.45403000     -0.013806    0.11731100    0.98516700
Se    4.58522000   10.12110000    6.26372000      0.500121   -0.62575200   -0.57690700
Se    4.24111000   10.16536000   15.79120000     -0.441800    0.46319500    0.04809200
Se    4.75401000   16.08986000    5.70763000     -0.377982   -0.35766300    0.07632300
Se    4.09389000   15.68570000   15.77427000      1.226189    0.13396700    0.30267700
Se    4.59681000   21.78418000    6.31078000      1.869681   -0.57275000   -0.80009600
Se    4.14919000   21.52183000   16.42685000      0.411335    0.03732700   -0.52686500
Se    9.99220000    4.23055000    6.14667000      0.683490    0.19986300    0.32816300
Se   10.12064000    4.34070000   16.06480000      0.888736    0.25979400   -0.13058700
Se   10.28160000   10.37604000    6.15359000      0.728284   -0.77358200   -0.26513500
Se   10.18373000   10.26998000   15.77042000     -0.582785    0.20246200    0.09747000
Se   10.32789000   16.17317000    5.57230000     -0.072128   -0.53863600    0.39234400
Se    9.86812000   15.89994000   16.38645000     -0.133708   -0.46026400   -0.64061200
Se   10.06806000   21.80289000    6.00111000     -0.145019   -0.18258300    0.18159000
Se   10.37144000   21.94807000   16.21797000      0.059896   -0.19163100    0.21940500
Se   15.58674000    4.61848000    5.82743000      0.736546   -0.70148700    0.00243000
Se   16.12905000    4.31987000   15.48340000      1.337979    0.57292000    0.55384400
Se   15.89047000    9.96596000    6.25532000     -0.527567    0.63242400    0.10582300
Se   16.09630000   10.07319000   15.56202000      0.492518    0.58908900    0.13023100
Se   15.87106000   15.87572000    6.15401000     -0.618750   -0.62311700   -0.39544500
Se   16.25717000   16.40631000   15.72767000     -0.048404   -0.76029800    0.29061400
Se   16.01252000   21.42121000    5.83902000     -0.787147    0.30704300    0.44508100
Se   16.34457000   21.67763000   15.95031000     -1.211943    0.30468500    0.22275700
Se   21.67633000    4.41062000    6.11382000      0.100069   -0.20099800   -0.63113400
Se   21.86815000    4.21354000   15.82188000     -1.496933    0.35436700    0.02222000
Se   21.83997000    9.83103000    6.22456000      0.793268    0.51491700   -0.05615200
Se   21.58167000   10.20360000   15.51683000     -0.054360    0.03615100    0.07899200
Se   21.77675000   15.91585000    5.62730000      0.008860    0.61434800    0.76734200
Se   21.68750000   16.01920000   16.28035000      0.650578   -0.67450700   -0.97495400
Se   22.19231000   22.03527000    5.84180000     -0.935864    0.36252500    0.96895000
Se   21.93592000   21.45940000   15.75421000     -0.231208   -0.20377300   -0.32551300
Se    4.55622000    1.41233000    3.67818000     -0.247838    0.30005900    0.09723000
Se    4.28765000    1.31834000   13.61354000     -0.300503   -0.50702500    0.44499000
Se    4.50383000    7.41031000    3.87021000      1.292592   -1.72045100   -0.99745400
Se    3.73600000    7.29778000   12.98192000      0.949709   -1.15993400   -0.40404900
Se    4.66362000   12.88221000    4.18853000      0.752539    0.70073600   -1.51150400
Se    4.37575000   13.36026000   13.20473000     -0.506000   -0.04342800    0.31466600
Se    4.02032000   19.09720000    3.41649000     -0.069133    0.32886300    0.86895700
Se    4.69003000   18.52105000   13.85033000      0.516670    0.20748600   -0.52076700
Se   10.34413000    1.29492000    4.06103000      0.078592    1.20839300   -1.01729800
Se   10.33657000    1.68243000   13.70936000      0.166934   -2.08615300   -0.18013400
Se    9.81531000    7.38457000    3.48296000      1.312448    0.60642200   -0.64252800
Se   10.03206000    7.35209000   13.18430000     -0.237394    0.96611600    0.60817900
Se   10.68429000   12.90150000    3.77420000     -0.325884   -0.99028200   -0.13062400
Se   10.22155000   13.45460000   13.31186000     -0.680768   -1.08404500    0.85121800
Se    9.92714000   18.84525000    3.06572000      0.096441    0.38938000    0.47700300
Se   10.41375000   18.65011000   13.91907000     -0.294026    1.13654300    0.31291200
Se   15.84627000    1.18835000    3.83472000      0.665792    0.03860500   -0.48063300
Se   16.14271000    1.15971000   13.44034000     -1.369783   -0.80741200    1.21945200
Se   15.59505000    7.25427000    3.74312000      0.298385   -0.02966500   -0.03394700
Se   15.84503000    6.81941000   13.00887000      0.089000    1.76200100    0.34816000
Se   15.67113000   12.77250000    3.55874000      0.413971    0.13431100    0.05246200
Se   15.84526000   13.06912000   13.38466000      0.050692    0.80661000   -0.14193100
Se   15.99155000   18.89388000    3.58280000      0.169593   -0.41031500   -0.21396700
Se   15.54428000   19.03052000   13.19296000      0.389319   -0.19279200   -0.55596800
Se   21.81732000    1.62738000    3.77237000     -0.066329    0.07162900   -0.09933300
Se   21.70192000    1.38183000   13.81362000      0.869714   -0.81417400   -1.26268000
Se   21.54578000    7.11010000    3.55714000      0.540213    0.87851200   -0.09311900
Se   21.79122000    7.04082000   13.10456000     -0.994846    0.21482000    0.80296200
Se   21.58015000   12.85081000    3.48638000     -0.846130    0.01720600    0.64817800
Se   21.29655000   13.42749000   13.43235000      0.458086    0.35892500   -0.03166300
Se   21.58612000   19.08900000    3.62655000      1.408422   -0.09892700   -0.46400100
Se   21.57771000   18.67155000   12.87176000      0.166166    0.02978800    0.31420700
Se    1.85220000    4.31870000    3.55724000     -0.847537   -0.15972900    0.02439700
Se    1.41618000    4.20201000   13.31417000     -0.808820    0.06898600   -0.72837000
Se    1.44833000   10.13964000    3.50282000      0.059938   -0.57069000    0.28299100
Se    1.38878000   10.29956000   13.20227000     -0.591415   -0.11449900   -0.13313100
Se    1.31038000   15.54360000    4.00809000     -0.028925    0.17690300   -0.78163500
Se    1.24140000   16.24352000   13.13317000     -0.000344   -0.66613300    0.18297800
Se    1.34155000   22.03158000    4.22102000      0.594388   -0.13626300   -0.55743500
Se    1.77721000   21.58169000   13.16830000      0.333525   -0.13171300    1.01200200
Se    7.24183000    4.47958000    3.68552000     -0.141664   -0.29520600   -0.09482000
Se    6.99503000    4.33832000   13.54086000      0.724416   -0.57257200    0.20681000
Se    7.21209000   10.51062000    3.59673000      0.173603   -0.92924900    0.03839400
Se    6.72509000   10.18319000   13.70192000      0.582244   -0.50917900   -0.16539400
Se    7.82117000   15.84876000    3.11687000     -0.878384   -0.07711200   -0.13454600
Se    7.22025000   16.24061000   13.71262000      0.643572   -0.12288100    0.50014000
Se    7.20424000   21.83945000    3.75562000     -0.250207   -0.90047000   -0.47362100
Se    7.40800000   21.50553000   14.17713000     -0.201528    0.25548000   -0.64008000
Se   13.38184000    4.33531000    3.37626000     -1.013951   -0.44479500    0.03023700
Se   13.22864000    4.21846000   13.51073000     -0.334914    0.14688400   -0.41600000
Se   12.97165000   10.48994000    3.55046000      0.524811   -0.82428900    0.47886800
Se   13.27330000   10.34758000   13.55577000     -0.343907   -0.99392900   -0.17426300
Se   13.23324000   15.77559000    3.37093000     -0.705785    0.08921800   -0.17174000
Se   13.28960000   16.36112000   13.65471000      0.104485    0.00046600    0.27473400
Se   12.94918000   21.64105000    3.59033000     -0.056828    0.30422700    0.06008300
Se   12.87530000   21.99360000   13.68002000      0.751463   -0.27201500    0.57646400
Se   18.42050000    4.20392000    3.85948000      0.009824    1.40441000   -0.04727700
Se   18.69125000    4.10584000   13.33746000      0.233799   -0.14034500    0.30690100
Se   18.91397000   10.12037000    3.32915000     -0.333706    0.57573800    0.15324100
Se   18.85340000   10.04605000   13.12205000     -0.124890   -0.71550100   -0.00370900
Se   18.43905000   15.64522000    3.77629000      0.585696    0.21357900    0.47236200
Se   18.55289000   16.13077000   13.17929000      0.448166    0.36122400    0.59621100
Se   18.83126000   21.90026000    3.92862000     -1.673584    1.86124000   -1.11583100
Se   18.52861000   21.36059000   13.80852000      0.571610    0.39406000   -0.44102500
