384
23.23808000 23.23808000 19.51320000
Ge    5.77171000    5.76018000    9.48319000      0.104745    0.25107800   -0.24121200
Ge    5.65065000    5.56270000    0.04715000     -0.112111    1.07110900    0.82093500
Ge    5.88747000   11.72352000    9.76185000     -0.961925    1.09059000    1.36561300
Ge    6.19380000   11.76999000    0.11740000     -0.309024   -1.57577500   -0.02954100
Ge    5.54882000   17.30616000    9.57035000      0.077904    1.13371200    0.63155200
Ge    6.03415000   17.09895000    0.09505000     -0.832861   -0.19380300   -0.35796600
Ge    5.51185000    0.21373000    9.84459000     -0.220505    0.70464400    0.00031700
Ge    6.06512000   22.93366000    0.06636000      0.552726   -0.73671400    0.04386400
Ge   11.73724000    5.90041000    9.64063000     -2.216935   -1.90933300   -1.17447700
Ge   11.49737000    5.74669000   19.38018000      0.800519    0.49137100    0.29404900
Ge   11.50618000   11.56137000    9.49436000      0.188482   -0.20185800   -0.19750900
Ge   11.72785000   11.96083000    0.26503000     -0.706980   -1.09848100   -1.01455600
Ge   11.60961000   17.30089000    9.70311000      0.407783    0.45679700   -0.04965100
Ge   11.32136000   17.92310000    0.05981000      0.556673   -0.41277100   -0.22840300
Ge   11.61338000    0.03835000    9.66789000      1.214797    0.05302800    0.96720600
Ge   11.34405000    0.21573000    0.22026000      0.564676    0.76982600   -1.01650800
Ge   17.52824000    5.43792000    9.61422000      0.400568    0.91317400    0.58347900
Ge   17.52858000    5.46581000   19.37347000      0.356738   -0.73435500    0.68591600
Ge   17.65208000   11.24842000    9.75654000      1.269265   -0.46860800    0.12612600
Ge   16.97939000   11.74866000   19.26312000      0.984084   -0.71383900    0.52131200
Ge   17.58931000   17.00143000   10.06565000     -0.630606    0.13933800   -1.18550400
Ge   17.55272000   17.42220000   19.18060000     -0.044715    0.63734300   -0.40713600
Ge   17.78201000    0.08315000   10.07990000     -0.759337    0.40273500   -0.16679200
Ge   17.42434000    0.20725000    0.02953000      0.356737   -0.36809300   -0.63001200
Ge   23.02839000    6.05523000   10.07799000      0.731243   -0.42594700   -0.58044000
Ge   23.02172000    5.82936000   19.36039000      0.018466    0.24524800    0.19316600
Ge   23.06417000   11.58251000    9.72764000     -0.309280    0.06791400    1.03355700
Ge    0.10054000   11.44579000    0.01024000      0.782517   -0.39451700    0.41828400
Ge   22.90293000   17.63211000    9.83421000      1.294754    0.92614300   -0.15947100
Ge    0.25089000   17.79017000   19.46896000      1.368586   -1.71861000    0.13959500
Ge   22.78659000    0.41774000    9.77251000      1.427108   -0.82596000    0.68952900
Ge    0.22873000   23.23455000    0.06057000     -0.584267    0.24841500    1.04986400
Ge    2.81212000    5.95378000    7.45563000     -0.152540    0.04715500   -0.04495600
Ge    2.83207000    5.87261000   17.10109000      0.055686    0.76759300    1.32481600
Ge    2.78694000   11.43115000    7.46893000      1.025768    0.33799800   -1.26566600
Ge    3.17212000   11.56645000   17.25010000      0.432457    0.22761600   -0.10134800
Ge    2.66781000   17.35125000    7.16210000     -0.033921    0.56047900    1.30295600
Ge    3.34542000   17.61228000   17.04844000     -0.299831   -0.43466000   -0.53674400
Ge    2.66243000   23.17439000    7.33098000     -1.645722    2.30716000    1.67250700
Ge    2.83943000   23.16935000   17.34083000      0.962957    0.14675600   -1.63363600
Ge    8.82618000    5.92526000    7.13336000     -1.542725   -2.16838900   -0.41559000
Ge    8.66164000    5.70652000   17.12662000     -0.359885   -0.05786400   -0.99597900
Ge    8.63805000   11.61694000    7.17898000      0.687106    0.29114100    0.12051700
Ge    8.88581000   11.56293000   17.03135000     -0.771897    0.45220100   -0.76568900
Ge    8.59721000   17.34083000    7.22110000     -0.311258   -0.63063000    0.43370400
Ge    8.46938000   17.32973000   16.90453000      0.747850    0.54692400   -0.61497300
Ge    8.67498000   23.11458000    7.76486000     -0.754690    1.51731400   -0.42317500
Ge    8.58953000   23.15088000   16.96944000     -1.199129    1.95800200    0.25271200
Ge   14.50194000    5.89539000    7.17167000      0.989522   -0.24284700    0.28281600
Ge   14.55085000    5.90173000   17.03727000     -1.431254   -0.32299300    0.44523400
Ge   14.60216000   11.83790000    7.30334000      0.913710    0.36102300   -1.01137500
Ge   14.29042000   11.88452000   16.98359000     -0.540156   -0.32890500   -0.21872800
Ge   14.85223000   17.02292000    7.58702000      0.271834   -0.07757900   -0.00238800
Ge   14.32046000   17.30895000   16.67667000     -1.046667    1.16649900    1.80111000
Ge   15.04552000    0.09063000    7.44580000      1.765511    0.57606500   -0.50793400
Ge   14.35748000    0.18584000   17.17515000     -0.362377   -0.10810100   -0.87922900
Ge   20.23570000    5.64398000    7.26848000     -0.247588    2.09856000    0.46607900
Ge   20.25356000    5.67781000   17.27128000      1.025791   -0.22132800   -0.56445800
Ge   20.27501000   11.53376000    7.14792000      0.852035   -0.96540200    0.34025700
Ge   20.19801000   11.65284000   17.46956000      0.588283   -1.14552900   -0.08497900
Ge   20.17048000   17.59264000    7.17503000      0.029592    0.76500600    0.30333000
Ge   20.49963000   17.75208000   16.85953000     -1.903040    0.30359900    0.12735600
Ge   20.24086000   23.00018000    7.25682000     -0.738992    1.28904000    0.38692000
Ge   20.35537000    0.02027000   17.35465000      1.039954    0.27444000   -0.21749900
Ge    2.91439000    2.88492000    4.74864000      0.162317    0.93765800    0.38016300
Ge    3.03866000    3.12873000   14.69721000      0.529071   -0.38718000    0.36983400
Ge    3.13308000    8.55963000    4.87122000     -1.541761    0.84736600    0.51975900
Ge    2.85036000    8.87520000   14.90628000     -0.045078   -0.65128100   -0.63897300
Ge    2.53957000   14.40397000    4.94125000      1.977813   -0.56898000    0.10925300
Ge    3.00656000   14.58425000   14.76879000      0.944244   -0.41461100    0.61692700
Ge    2.76288000   20.25629000    4.92215000     -0.244782    0.83449200   -0.42949000
Ge    3.05361000   20.35102000   14.59774000      1.242298    0.77121500   -0.89361200
Ge    8.70091000    2.86874000    5.06082000     -0.185941    0.32946400   -0.16330400
Ge    8.43324000    2.99080000   14.43948000     -0.124990    0.30544400    0.48295500
Ge    8.84063000    8.64579000    4.71401000     -0.207960   -0.12728900    0.24770400
Ge    9.19358000    8.61282000   14.76309000     -1.931074    0.70993100    0.46955600
Ge    8.65555000   14.33819000    4.88738000      0.182464    0.85068800    0.40054300
Ge    8.65153000   14.34338000   14.54421000     -0.883904   -0.44360500   -0.21510600
Ge    8.82017000   20.39812000    5.26795000     -0.261392   -0.68264100   -0.09604100
Ge    8.66857000   20.40592000   14.55060000      0.162334    0.27467700   -0.21837300
Ge   14.56615000    2.80003000    4.88512000      0.367073    0.05192000    0.55782300
Ge   14.47535000    2.99057000   14.39353000     -0.510954    0.15544000    0.26074200
Ge   14.72306000    8.98820000    4.59854000      0.442721   -0.78960100   -0.39463800
Ge   14.72566000    8.52073000   14.51602000     -0.284745   -0.33994300    1.24442100
Ge   14.68861000   14.95372000    4.86557000      0.757819   -0.14594000   -0.35089500
Ge   14.34889000   14.22242000   14.41611000      0.214206   -0.50130500    0.71042400
Ge   14.70928000   20.27300000    4.98016000      0.059869    0.52020400    0.60507900
Ge   14.41344000   20.65590000   14.75849000     -0.153749    0.09675800   -0.95730100
Ge   20.06915000    3.15544000    4.88469000      0.853667   -1.29210000    0.19242200
Ge   20.55936000    2.96015000   14.81414000     -0.273722   -0.97238500   -1.20288300
Ge   20.24281000    8.56015000    4.68119000      0.443268   -1.00168000    0.54382000
Ge   20.20779000    8.53416000   15.04904000      1.484704   -0.37926300    0.11426800
Ge   20.14213000   14.50509000    4.95023000      0.383339   -1.50186300   -0.41116100
Ge   19.98560000   14.21145000   14.65742000     -0.682554   -0.15036000   -0.05288500
Ge   20.29843000   20.35123000    4.76287000     -0.201691    0.07535100   -0.13115300
Ge   20.07258000   20.35487000   14.58435000     -0.156978   -0.14975600    0.48814900
Ge    6.02419000    2.72061000    2.44959000     -0.234955   -0.14156000   -0.86194400
Ge    5.63612000    3.34788000   12.08952000      0.474548   -0.09520200   -0.76314700
Ge    5.83647000    8.63647000    2.64095000      0.573407    1.43554800   -0.64345900
Ge    6.01012000    8.68665000   12.30563000      0.580170   -0.81587100    0.66039000
Ge    5.87959000   14.43328000    2.40403000     -0.822310    1.10602700    0.27644600
Ge    5.61867000   14.53257000   12.25530000      0.074131   -0.03727700   -0.24092700
Ge    6.02246000   20.04940000    2.65839000     -1.024746   -1.23221100   -0.69639700
Ge    6.12395000   20.43279000   12.12473000     -1.301653   -1.33839600   -1.03695700
Ge   11.50009000    2.96590000    2.62356000      1.378352    0.76972200   -0.76775200
Ge   11.44914000    3.14728000   12.27899000      0.642592    0.64649200   -0.59394600
Ge   11.94043000    8.64978000    2.25612000      0.073704    0.69055200    1.42841200
Ge   11.61940000    8.90879000   11.89182000      0.251185   -0.17985600    1.50111900
Ge   11.66730000   14.84839000    2.57204000      0.659550    1.17899900    0.30630100
Ge   11.47041000   14.37635000   12.08494000      1.655355   -0.81429900    0.54206300
Ge   11.82962000   20.42414000    2.83031000     -0.288923    1.34626000   -0.36790000
Ge   11.59824000   20.12150000   12.20755000     -0.493515   -0.36284600   -0.24761700
Ge   17.18338000    2.95903000    2.32487000      0.106638   -0.33049100   -0.35628600
Ge   17.48257000    2.78788000   12.63022000     -0.229345    0.06222500   -0.78964400
Ge   17.36999000    8.50289000    1.88915000      1.223393    1.26518700    0.32210600
Ge   17.68355000    8.36740000   12.17755000     -0.801140    1.11670300    0.47488800
Ge   17.60782000   14.78714000    2.16835000     -2.165401   -0.15650800    0.21410000
Ge   17.35972000   14.26710000   12.15621000      0.201110   -1.56675100    0.22301800
Ge   17.44615000   20.41409000    2.09436000      0.093691   -0.57519800    0.77786100
Ge   16.85672000   19.97360000   12.04381000      1.822676    0.41797300    0.13796600
Ge   22.91551000    3.09559000    2.56942000     -0.108589   -0.76425000   -0.42574200
Ge    0.17745000    3.13013000   12.20947000     -0.124151    0.55685500    0.46698700
Ge    0.02848000    8.33014000    2.43260000     -0.246084    0.92070000    0.56091100
Ge   23.23534000    8.67303000   12.60840000      0.587808    0.11414500   -0.58212000
Ge   23.06608000   14.44222000    2.38473000      0.261328    0.32445100   -0.04905500
Ge   22.99924000   14.64681000   12.37360000      0.411493   -0.85471400    0.31247200
Ge    0.13960000   20.32150000    2.43144000     -0.039921   -0.73325700   -0.22494700
Ge   22.95802000   20.70484000   12.36177000      1.013638   -0.10540200    0.48236100
Se    1.32812000    1.44841000    1.71492000      0.137844   -0.11489000   -0.76511300
Se    1.36413000    2.03252000   10.46787000     -0.338679   -0.85987000    0.24028100
Se    1.47656000    7.08089000    1.08944000     -0.234895   -0.39101100   -0.45759400
Se    1.51594000    7.39834000   11.19758000     -0.721581   -0.44239300   -0.04919300
Se    1.41732000   12.85708000    1.50492000      0.154023    0.01588700   -0.22827400
Se    1.13019000   13.38261000   10.80282000     -0.076616   -0.28259800    0.28064500
Se    1.87096000   18.94811000    1.34575000     -1.176544   -0.12680100   -0.13890200
Se    1.17639000   19.26869000   11.08901000     -0.422601   -0.35713700   -0.47377000
Se    7.49602000    1.26929000    1.13237000     -0.100270    0.22798100    0.29939700
Se    7.13109000    1.71076000   10.89117000     -0.945201    0.08990800    0.13686500
Se    7.13197000    7.13569000    1.46034000      0.503927   -1.07296100   -0.82787600
Se    7.31398000    7.05101000   10.91803000     -0.501447    0.39714300    0.12641400
Se    7.59193000   13.14362000    1.39192000      0.217894    0.15720100    0.04873200
Se    7.26894000   13.45628000   10.86278000     -0.599810   -0.70154100   -0.20920400
Se    7.43401000   18.53047000    1.34850000      0.078911    0.38405300    0.56236400
Se    7.32266000   18.67439000   10.78513000     -1.009794    0.09655700   -0.07903800
Se   13.07235000    1.73667000    1.05161000     -1.520550   -0.18068000    0.67165100
Se   12.86929000    1.99487000   10.63371000      0.110278   -0.59847800    0.43608800
Se   13.13408000    6.98200000    1.29694000      0.783577   -0.65034500   -1.03798800
Se   12.91258000    7.56495000   10.49435000      2.234906    0.97079000    0.50560300
Se   13.17046000   13.53027000    1.20456000      0.052495    0.13618100    0.26394900
Se   12.89869000   12.92064000   10.81238000      0.875313    0.10227300    0.28369700
Se   13.11297000   19.18254000    1.28423000     -0.567819   -0.51833700   -0.48208400
Se   13.07415000   19.02620000   10.69204000     -0.423182   -0.64177900    0.01262100
Se   18.85231000    1.59674000    1.31272000     -0.073144   -0.17959200   -0.21125400
Se   19.10451000    1.42989000   11.62852000      0.343204   -0.38845400   -0.56522000
Se   18.96857000    6.79043000    1.31665000     -0.324015    0.13118100   -0.59791200
Se   19.06695000    7.22418000   10.79430000      0.557333   -1.30393000   -0.87206700
Se   18.59616000   12.84016000    1.18044000      0.332938    0.29092200   -0.09411600
Se   19.03059000   12.87125000   10.95010000     -0.633413    0.21516900    0.26073700
Se   18.98200000   18.86611000    1.11807000     -0.353883   -0.06602100   -0.45560300
Se   18.92656000   18.51692000   11.18962000     -0.858380    0.90154400    0.70395700
Se    4.32457000    3.87372000    1.18227000      0.343931    0.50699000   -0.19070600
Se    4.02363000    4.60275000   10.70385000      0.864267   -0.25840500    0.27513700
Se    4.61735000   10.16824000    1.21686000      0.048206    0.53724000   -0.08524700
Se    4.63817000   10.33997000   11.43606000     -0.279836    0.66599300   -0.95092600
Se    4.25710000   15.67720000    0.75313000      0.793201   -0.36700000    1.18117900
Se    4.08358000   15.85106000   10.85257000      0.249838    0.06371900    0.24229100
Se    4.65458000   21.53499000    1.38889000     -0.137727    0.14868700   -0.09779200
Se    4.32160000   21.76502000   11.13332000      0.218278    0.14261400   -0.18635300
Se   10.12436000    4.68052000    1.42249000     -0.374603   -1.07918900    0.35383500
Se   10.11715000    4.43253000   10.73807000      0.311319    0.85076000    0.14595900
Se   10.44895000   10.19007000    1.48949000     -0.930221    1.22507900   -1.03878800
Se   10.03211000   10.19736000   10.78745000     -0.484110    0.16685500   -0.19409300
Se   10.08147000   16.37725000    1.47708000      0.086895   -0.07885900    0.00885000
Se   10.20814000   15.87736000   11.02843000     -1.503355    1.54309700   -0.93203300
Se   10.14429000   21.92360000    1.55551000      0.269658   -0.65166100    0.47739300
Se   10.27575000   21.85914000   11.13484000     -0.294847    0.28088100   -0.73505400
Se   15.74678000    4.31196000    1.02912000      0.329972    0.11465800   -0.16824100
Se   16.17528000    4.27969000   11.17786000     -0.249614   -0.06835100   -0.15313600
Se   15.78658000    9.99256000    0.81896000     -0.530268   -0.46335200    0.19661900
Se   16.18693000    9.76539000   10.76540000     -0.135723   -0.38472600    1.07293400
Se   15.93861000   16.41793000    1.06587000      0.830016   -0.90694900    0.10994800
Se   15.81742000   15.59556000   11.09206000      0.231133    1.07514700   -0.86679200
Se   15.95415000   21.91613000    1.05456000     -0.611251   -0.14912000    0.00921000
Se   15.88227000   21.81611000   10.73274000      0.569739   -0.21788800    0.32589000
Se   21.47398000    4.34370000    1.02105000      0.795721   -0.02802800    0.36431200
Se   21.67143000    4.40297000   11.15114000      0.160022    0.20929400    0.27533300
Se   21.89058000   10.02000000    1.22696000     -0.142272   -0.49736000    0.25193500
Se   21.76166000    9.81568000   11.13227000      0.002712    1.11961300   -0.61056600
Se   22.08458000   15.92181000    0.63112000     -0.127915   -0.02724800    0.77208800
Se   21.70572000   16.45695000   11.50728000     -0.816035   -0.16439900    0.07640300
Se   21.95885000   21.66989000    1.14591000     -0.407657    0.14562900   -0.28524500
Se   21.37171000   22.15776000   11.30845000      0.553749    0.00402000   -0.29633400
Se    1.26706000    4.48045000    8.68474000      0.069173    0.97333100    0.06762300
Se    1.14707000    4.34468000   18.03015000      0.270735    0.28202500    0.31902200
Se    1.21275000   10.11231000    8.55029000     -0.080503   -1.23534300    0.13915600
Se    1.94098000   10.02696000   18.52336000     -1.004430    0.50441900    0.35839200
Se    1.18057000   16.15899000    8.67439000      0.132391   -0.51751700    0.05281300
Se    1.96960000   16.17905000   18.27126000     -1.079260    0.30099100    0.67227100
Se    1.38368000   21.97963000    9.03530000     -0.533294    0.58010100   -0.48528400
Se    0.91516000   21.92810000   17.72846000      0.525213   -0.90847400    0.42945000
Se    7.18237000    4.11913000    8.28269000      0.425998    1.47860400   -0.00621000
Se    7.29470000    4.27000000   18.44610000      0.129075   -0.30080600   -0.06895900
Se    7.17140000   10.27857000    8.53678000      0.575884   -0.84525800   -0.34689600
Se    7.73093000   10.23285000   18.53501000     -0.505780   -0.67623500    0.39339100
Se    7.00756000   15.88913000    8.37604000      0.513793   -0.10061300   -0.38828300
Se    7.32182000   15.73380000   18.15513000      0.137247   -0.41504900    0.21929800
Se    7.08293000   21.92600000    8.96624000      0.170811   -0.92679700   -0.12116800
Se    7.68843000   21.48719000   18.33118000     -0.976457    0.32046900    0.63991800
Se   13.11348000    4.38707000    8.31824000     -0.445926    0.36336900    0.50786100
Se   13.15798000    4.42395000   18.29741000     -0.291527   -0.42892000    0.10501600
Se   13.03369000   10.31620000    8.05574000     -0.582670   -0.77865400    0.54853500
Se   13.25158000   10.44505000   18.55647000     -0.409151    0.18802900    0.35418800
Se   13.00682000   15.76951000    8.52340000      0.306388   -0.22842100   -0.07461700
Se   12.56588000   16.23651000   18.35778000      0.688203    0.62127800   -0.68766900
Se   13.56886000   22.04766000    8.66552000     -1.206951   -0.81874300    0.70506300
Se   12.83383000   22.03231000   18.47388000      0.571676   -0.13497400   -0.37891300
Se   19.14091000    4.03688000    8.51201000     -0.629718   -0.61007700    0.40577500
Se   19.08308000    3.91660000   18.29228000     -0.645246    0.31415400    0.33017300
Se   19.14753000    9.85890000    8.50890000      0.031933    0.76119700   -0.14845700
Se   18.93413000   10.13176000   18.94815000     -0.257030    1.30063000   -0.93754900
Se   19.30344000   15.85207000    8.61276000     -0.490345    0.26439900    0.14275000
Se   19.35697000   16.06096000   18.11554000     -1.090838    0.48618300    0.73671800
Se   19.08332000   21.62301000    9.02969000      0.373584    0.39062900   -1.07345100
Se   18.96408000   21.84401000   18.56936000     -0.411033    0.10655500    0.30293900
Se    4.34369000    1.55561000    8.15331000     -0.287471   -0.62447500    0.44187700
Se    4.59852000    1.09470000   18.44494000     -0.551716    0.80847000   -0.00266600
Se    4.62971000    7.49372000    8.10876000     -0.180494   -1.09955100    0.54024400
Se    4.33667000    7.37692000   18.67128000     -0.394324   -1.29014500   -0.70484700
Se    3.87763000   12.97175000    8.93353000      0.614713   -0.21641700   -0.11559600
Se    4.90637000   13.01049000   18.10546000     -0.492618    0.37263700    0.06255400
Se    4.10659000   18.90096000    8.36071000      0.308399   -0.55089300    0.27787200
Se    4.93179000   18.75387000   18.33345000      0.073231    1.20293100   -0.08730900
Se   10.22631000    1.50432000    8.53698000     -0.554161    0.31096400   -0.13989100
Se    9.97511000    1.55895000   18.05299000      0.434789   -0.43507100    0.65922300
Se   10.07524000    7.30246000    8.35353000      1.212956    0.84401100    1.05876100
Se   10.12468000    7.25763000   18.12227000      0.409398    0.26341300    0.46556600
Se   10.27763000   13.17537000    8.35332000     -1.194086   -0.23983900   -0.60869900
Se   10.26932000   13.12604000   18.10240000      0.460799    0.49740800    0.68505100
Se   10.20261000   18.68124000    8.33947000      0.155183    0.42361600    0.54374400
Se    9.64483000   19.09678000   18.10401000      0.611834   -0.55111800    0.28835700
Se   16.62965000    1.72829000    8.66729000     -0.532534   -1.34717500    0.05783200
Se   16.24448000    1.49800000   17.85719000      0.013563    0.33821800    0.56161600
Se   16.23612000    7.07201000    8.39830000     -0.232513   -0.03654300    0.12557800
Se   16.29753000    6.96083000   18.09043000      0.341074    1.55664500    0.23088200
Se   16.17989000   12.78613000    8.95222000     -1.198799    1.08187400   -1.19295600
Se   15.77646000   13.43181000   18.07025000      0.268391   -0.12407300    0.04197800
Se   16.04792000   18.58767000    8.85195000      0.802903   -0.36456000    0.55360300
Se   16.03541000   18.85149000   17.58849000      0.023850   -0.89264800    0.79863600
Se   21.49230000    1.69069000    8.29912000     -0.326614   -0.78576700   -0.41295100
Se   22.06901000    1.48149000   18.42989000     -1.198019    0.30253000   -0.26632600
Se   21.44443000    7.25167000    8.71207000      0.367389   -0.06760000   -0.29693700
Se   21.47538000    7.44414000   18.25585000      0.722360   -0.75969900    0.48573400
Se   21.81473000   13.04993000    8.35773000     -0.636435   -0.28868000   -0.21103100
Se   21.87903000   13.02845000   18.57274000     -0.358602    0.29328200   -0.51296700
Se   21.98675000   19.08917000    8.14051000     -0.971838   -0.51882200    0.28628100
Se   22.20887000   19.00665000   17.93053000     -0.167100    0.94519300   -0.21158500
Se    1.45012000    1.44820000    5.84738000     -0.924245   -0.39997200    0.42603700
Se    1.68018000    1.69031000   16.05288000      0.035931   -0.45155800    0.05117800
Se    1.33325000    7.39706000    6.29072000      0.858909    0.45672200   -0.68350600
Se    1.31132000    7.27230000   15.93332000      0.543917    0.25989900   -0.09315400
Se    1.27854000   12.72566000    5.97892000      0.237865   -0.30543600    0.45573000
Se    1.72879000   12.98704000   16.00465000     -0.508508    0.00371600    0.34251600
Se    1.22793000   18.83569000    6.06417000     -0.301998    0.43976500   -0.44474800
Se    1.73991000   18.87217000   15.72307000     -0.505906   -0.85778000    0.95617800
Se    7.38597000    1.12004000    6.08533000     -0.142031    0.20348100    0.08719900
Se    6.84946000    1.56817000   15.74923000      1.327531   -0.38050500    0.02306100
Se    7.24821000    7.00595000    5.71981000      0.680869    0.56192800   -0.08318400
Se    7.30796000    7.21503000   15.77678000      1.238085    0.26359000    0.07447400
Se    7.08420000   12.64047000    5.67580000      0.369993    0.84021300    0.26501900
Se    7.04427000   12.71650000   15.65842000      1.878586    0.55964300    0.12847200
Se    7.16170000   18.86872000    6.12661000      0.207378    0.38581400   -0.22560100
Se    7.06104000   18.97910000   15.52216000      0.177589   -0.60021000    0.48254100
Se   13.37969000    1.41400000    6.49479000     -0.492956    0.40185100   -0.82333300
Se   12.97689000    1.62698000   15.64115000     -0.027396   -0.52477000    0.67152500
Se   13.40410000    7.20691000    5.62407000     -0.853996    0.74071300   -0.14179900
Se   13.02777000    7.45317000   16.28626000      0.521922    0.79531800   -1.44701300
Se   13.27507000   13.40476000    5.91567000     -0.247124   -0.68205400    0.79296700
Se   12.62170000   13.24853000   15.89296000      0.889195   -0.28398100   -0.25187300
Se   13.53062000   18.51221000    6.32911000     -0.531709    1.06266400   -0.64233200
Se   12.92719000   19.12963000   15.85516000     -0.140227   -0.23024900    0.07128800
Se   18.73292000    1.32412000    5.83738000      0.353152   -0.30128100    0.48527400
Se   19.08430000    1.46564000   15.94804000     -0.254646   -0.17337600   -0.03995000
Se   18.79607000    7.21113000    6.08428000     -0.158523   -0.32168100    0.11128200
Se   18.73885000    6.88092000   15.96792000     -0.129259    0.71387900   -0.38576100
Se   18.63736000   12.93678000    6.21157000      0.487472    0.66334000   -0.58599500
Se   18.61690000   12.87614000   16.15132000      0.246211   -0.05560400   -0.14704000
Se   18.64660000   19.26604000    6.09655000      0.580182   -0.75804700    0.50830300
Se   18.55871000   19.02185000   15.88528000      1.172454   -0.52702100    0.20633900
Se    4.20618000    4.45707000    6.12565000     -0.022932   -0.15017000   -0.29437900
Se    4.45147000    4.41110000   16.31410000      0.319468   -0.49669000   -0.99580600
Se    4.62793000   10.11017000    6.11646000     -1.464648    0.12027800    0.25186100
Se    4.53100000    9.99908000   16.07496000      0.107028    0.23439600    0.11004800
Se    4.15850000   15.88693000    6.18541000     -0.295492   -0.97008700   -0.64151600
Se    4.68114000   16.03684000   15.80877000     -0.477871   -0.27339500   -0.24441300
Se    4.01374000   21.87249000    6.24032000      2.397744   -2.30599200   -1.53225300
Se    4.46137000   21.76973000   16.11855000     -0.656852   -0.23909000   -0.49308200
Se   10.31859000    4.40607000    5.97684000     -0.364457   -0.24800800    0.04027900
Se   10.17362000    4.31293000   15.81175000     -0.956527   -0.38384300   -0.28500600
Se   10.17859000   10.02790000    6.21858000     -0.249693    0.05067400   -0.17488500
Se   10.54241000   10.27811000   15.87896000     -0.153087   -0.37248700   -0.09605700
Se   10.15228000   15.77875000    6.33540000     -0.737272   -0.40067400   -0.67990100
Se   10.12288000   15.75697000   15.82964000     -0.437148    0.39232400    0.09145400
Se   10.12396000   21.66046000    6.78183000      1.071628   -0.68418000   -0.77631100
Se   10.01992000   22.12458000   15.55199000      1.254687   -0.72445400   -0.68275500
Se   15.94273000    4.22424000    6.28606000      0.615959   -0.31652700   -0.44967200
Se   15.79620000    4.36259000   15.88902000      1.221347   -0.80689300   -0.71348900
Se   16.12107000   10.42299000    5.81528000      0.031051    0.48197300    0.87139400
Se   15.80766000   10.36567000   15.87417000      0.183385   -0.37271200   -0.37034500
Se   16.46368000   15.76503000    6.31502000     -0.655652    0.10510200    0.09761900
Se   15.71207000   15.62358000   16.00349000      0.266874   -0.65120300   -1.07102600
Se   16.40724000   21.74406000    5.88988000     -0.789787    0.80785600    0.94965300
Se   15.98192000   22.15346000   15.80797000     -0.791343   -0.42702800    0.24849300
Se   21.80036000    4.73165000    5.89977000      0.068560   -1.63512300   -0.58506000
Se   21.94026000    4.39803000   15.87417000      0.231081    0.95578600    1.02274300
Se   21.76638000    9.78726000    6.02185000     -0.253575    0.99367800    0.09112500
Se   21.73667000   10.07896000   16.26238000     -0.974522    0.20201200   -0.15621700
Se   21.49363000   16.38928000    5.56731000      0.374053   -0.36627700    0.74180700
Se   21.27116000   15.86545000   15.73376000      2.259088   -0.47825000   -0.58286900
Se   21.78277000   21.95951000    5.79783000      0.178003   -0.45764700    0.17047100
Se   21.54458000   21.55524000   16.11517000     -0.031377    0.38544200   -0.54372200
Se    4.45206000    1.45177000    3.64464000     -0.146696   -0.86531900    0.28861100
Se    4.42668000    1.69998000   13.24623000     -0.619915    0.24827600    0.63424100
Se    4.50823000    7.06257000    3.69966000     -0.343443   -0.56023500    0.35817900
Se    4.41839000    7.39470000   13.74180000      0.027841    0.02830500   -0.48829700
Se    4.22495000   12.98596000    3.58450000      0.090424    0.82395300    0.25217200
Se    4.19384000   12.95642000   13.50370000      0.500822    0.51093100   -0.45796100
Se    4.18407000   18.79650000    3.64951000      0.479356   -0.13881900    0.13048100
Se    4.38268000   18.81111000   13.02328000      0.224733    1.53530500    0.55530000
Se    9.98989000    1.43922000    3.67213000      0.542077   -0.09511000   -0.02265700
Se    9.69099000    1.66226000   12.82279000      0.090865   -0.17864700    0.69266900
Se   10.43712000    7.25324000    3.51714000     -0.351818    0.36865800    0.32975400
Se   10.44430000    7.32770000   13.32999000      0.600955   -0.70447500   -0.67082000
Se   10.40233000   13.16767000    3.74886000      0.215782   -0.24169200   -0.24196900
Se   10.02730000   12.88432000   13.04594000     -0.853009   -0.18437000    1.00075900
Se   10.44284000   19.00705000    4.18575000      0.255314   -0.26281400   -0.15870600
Se    9.90864000   18.77396000   13.40334000      0.845310   -0.04394700   -0.52906700
Se   15.95697000    1.38795000    3.49368000     -0.562632   -0.64826600    0.71051400
Se   15.76359000    1.26070000   13.23152000     -0.189165    0.90558800    0.36624700
Se   16.18863000    7.26143000    3.35246000     -1.621792   -0.03811200    1.31131700
Se   16.38054000    6.90774000   13.55280000     -0.885886    0.57319800    0.32681200
Se   15.59138000   13.54252000    3.18004000      1.082824    0.16630700   -0.04342700
Se   15.87490000   12.67523000   13.25708000     -0.201982    0.45570900    0.15727100
Se   15.96659000   19.00913000    3.49130000      0.382502   -0.79300900   -0.81437700
Se   15.45651000   18.79401000   13.52751000     -0.026729    0.12681500   -0.02791900
Se   21.42598000    1.51271000    3.70657000      0.314332    1.04014600   -0.14198700
Se   22.14146000    1.50840000   13.37791000     -0.762840    0.39069400    0.67918300
Se   21.81195000    6.85149000    3.78950000      0.171462    1.21539200   -0.54884000
Se   22.07022000    7.14188000   13.92673000     -0.974150    0.13050200    0.24436700
Se   21.55288000   12.93668000    3.47844000     -0.587032    0.75253200    0.46744800
Se   21.44901000   12.81352000   13.35157000      0.524360    1.12668600    0.02016800
Se   21.80823000   18.85152000    3.66777000      0.187135    0.10493400   -0.44638000
Se   21.91119000   19.03891000   13.75945000     -0.415828    0.22488200   -0.27317000
Se    1.30969000    4.42972000    3.70488000      0.264725   -0.04121400    0.14964100
Se    1.43702000    4.62658000   13.77371000     -0.006146   -0.30462400   -0.70702300
Se    1.62126000    9.96540000    3.43016000      0.126592   -0.87023200    0.33476400
Se    1.40317000   10.29896000   13.58372000      0.316331    0.27058100    0.34088600
Se    1.05214000   15.89102000    4.04043000     -0.644871    0.32544900   -1.22033300
Se    1.37868000   15.92605000   13.88391000     -1.272747    0.39348700   -0.99307000
Se    1.45419000   21.86866000    3.51342000      0.702886    0.02536800    1.13468900
Se    1.42187000   21.94695000   13.76185000     -0.171057   -0.17004100   -0.40183800
Se    7.26056000    4.30155000    3.61500000      0.597499    0.13823700    0.64326200
Se    7.28102000    4.75361000   13.15018000     -0.068274   -0.42495900    0.41477100
Se    7.40064000   10.25696000    3.65640000     -0.357985   -1.12910800   -0.26690600
Se    7.48797000   10.07709000   13.69175000      0.242765   -0.51426100   -0.37286200
Se    7.60313000   16.05148000    3.63392000     -1.019146   -0.86304900   -0.26251300
Se    7.16727000   15.98541000   13.44174000      0.169172   -0.48610200   -0.08250700
Se    7.48758000   21.49327000    3.60124000      0.640852    1.57716900    0.68589900
Se    7.62565000   21.96444000   13.03038000     -0.108733   -0.05777900    0.58938300
Se   13.45182000    4.43164000    3.64023000     -1.404274   -0.61585900   -0.29774500
Se   12.92399000    4.79008000   13.74742000     -0.232467   -1.54254100   -0.85046900
Se   13.20794000   10.38747000    3.42893000      0.006887   -0.83174800    0.11093800
Se   13.60665000    9.95057000   13.01588000     -0.861032    0.49256100   -0.41431900
Se   13.36276000   16.58517000    3.84455000     -1.390597   -0.64757400   -0.55185700
Se   12.91755000   15.78954000   13.39459000      0.051110    0.36520000   -0.47118500
Se   13.48739000   21.97650000    3.81371000     -0.894050   -0.64735200    0.07076500
Se   12.76275000   21.86786000   13.18671000      1.085855   -0.02692800    1.21029700
Se   18.56507000    4.35222000    3.54943000      0.277712    1.53401300    0.56482100
Se   18.67894000    4.33221000   13.92750000      0.539590   -0.21434900    0.14528800
Se   18.81590000    9.93883000    3.51502000     -0.394662    0.30992300   -0.87263700
Se   19.16283000    9.90366000   13.52026000     -0.934540    0.26300500   -0.71547600
Se   18.72759000   16.00092000    3.87173000     -0.344847    0.57280200   -0.80480100
Se   18.36319000   15.71895000   13.66839000      0.647310   -0.06259000    0.13931400
Se   18.70473000   21.74334000    3.62880000      0.458832    0.56801100   -0.27278900
Se   18.47677000   21.53671000   13.29059000     -0.232029    0.05220300   -0.44278200
