384
23.23808000 23.23808000 19.51320000
Ge    5.78757000    5.80987000    9.40066000      0.281138   -1.04485100    0.84062900
Ge    5.76403000    5.58447000    0.02488000     -0.243273    0.59947400    0.78078500
Ge    5.82140000   11.69394000    9.88269000     -0.538029    0.95576500   -0.59187600
Ge    6.22005000   11.78675000    0.03246000     -0.025191   -0.80662100    0.40767600
Ge    5.63157000   17.32792000    9.72381000      0.688289    0.83637900   -0.54073100
Ge    5.92421000   17.07119000    0.09136000     -0.092365    1.56026700   -0.39812000
Ge    5.52679000    0.32974000    9.87944000      0.403459   -1.55467800    0.09421300
Ge    5.97482000   22.91200000    0.11370000      0.108064   -0.00865200   -0.52035200
Ge   11.69629000    5.94891000    9.42987000     -2.700007    0.49723000    1.35264200
Ge   11.67133000    5.68982000   19.41590000     -1.748539    0.68537100    0.82468000
Ge   11.51133000   11.62243000    9.50503000      0.470270   -0.46943200    0.36833400
Ge   11.59775000   11.95094000    0.20986000      0.560225   -0.65846500   -0.72244000
Ge   11.63373000   17.27284000    9.69651000     -0.255778    0.78183100    0.12792800
Ge   11.25347000   17.85397000    0.01484000      0.746176   -0.45588400    0.47686100
Ge   11.67340000    0.08656000    9.69325000     -0.213655   -0.21303000    0.46935800
Ge   11.44888000    0.20412000    0.21104000      0.234536    0.29021500   -1.33028300
Ge   17.43054000    5.51066000    9.56608000      0.994360   -0.14125700    1.48310400
Ge   17.54421000    5.48318000   19.43834000     -0.678124   -0.77427600   -0.88521000
Ge   17.78187000   11.30426000    9.77329000     -0.634188    0.92335100    0.07251500
Ge   17.01791000   11.70983000   19.31033000     -0.282920   -0.73071600    0.02750400
Ge   17.56145000   17.04657000    9.93430000     -0.706800   -0.56263600    0.08822700
Ge   17.64900000   17.52535000   19.10095000     -0.849513   -0.60730000    1.02232300
Ge   17.84575000    0.03592000   10.12333000     -0.493380    0.72562600    0.01886600
Ge   17.40848000    0.12486000    0.09555000      1.058348    0.58993900   -1.96606600
Ge   23.06373000    6.11306000   10.02767000     -0.462150   -1.36472500   -0.30526700
Ge   23.01203000    5.93158000   19.43509000     -0.794881   -0.39519500   -0.77982500
Ge   22.96636000   11.59172000    9.69548000      1.079840   -0.65397100    1.23337800
Ge    0.09289000   11.47696000   19.50835000      0.611888   -0.52633400    0.13267700
Ge   23.01522000   17.79337000    9.90246000     -0.113309   -0.86908500   -0.18193200
Ge    0.24545000   17.68609000   19.46189000     -0.427110   -0.17925800   -0.59489500
Ge   22.85583000    0.31960000    9.82616000      0.124640    0.27561000    0.50361000
Ge    0.25879000    0.09693000    0.17247000     -1.197098   -1.10938300   -0.43670600
Ge    2.93259000    5.95779000    7.37828000      0.055427   -0.45015400    0.52747100
Ge    2.86336000    5.91832000   17.18313000     -0.557206   -0.17079700    0.67098500
Ge    2.65785000   11.49495000    7.48398000      1.711699    0.27248700   -0.84264900
Ge    3.21464000   11.57254000   17.21391000     -0.176549    0.05556300    0.52776500
Ge    2.65497000   17.32783000    7.22326000      0.332192    0.52013900    0.80203800
Ge    3.28737000   17.51087000   17.16547000      0.670644    0.00634700   -0.81126400
Ge    2.62055000   23.22039000    7.53449000      1.061918    0.49057900   -1.74416800
Ge    2.92972000   23.08913000   17.19482000     -0.242576    0.60740200   -0.50513800
Ge    8.64886000    5.87310000    7.23316000      1.156853   -1.08066700    0.42244700
Ge    8.63729000    5.68891000   17.07262000     -0.309475    0.87351200   -0.87904900
Ge    8.76075000   11.67031000    7.23718000     -0.554371   -0.21815000   -0.51672600
Ge    8.75827000   11.47163000   17.02685000      0.423984    1.04305900    0.04418900
Ge    8.54553000   17.26013000    7.23395000      0.278893    0.80780400   -0.14509400
Ge    8.47172000   17.31312000   16.87639000     -0.452756    0.26887800    0.51566600
Ge    8.72647000   23.12149000    7.74505000     -0.656748    0.39740600   -0.74085100
Ge    8.58786000   23.19497000   17.03777000     -0.615452    0.35669000   -0.26578200
Ge   14.49738000    5.68020000    7.25359000      2.117649    2.14882500   -2.25305300
Ge   14.53241000    5.97382000   17.05773000     -0.274315   -0.72620800    0.87045800
Ge   14.72259000   11.74584000    7.41250000     -0.453107    0.21511800   -1.19968600
Ge   14.36273000   11.91985000   16.88003000     -0.270445   -0.38356200    0.69059600
Ge   14.86066000   17.11622000    7.52005000     -0.577453   -0.40320500    0.05159800
Ge   14.33838000   17.47335000   16.73458000     -1.362862   -0.41245100    1.04403800
Ge   15.00227000    0.24066000    7.39520000      1.464466   -1.24070000    1.16352600
Ge   14.31785000    0.30739000   17.04511000     -0.118731   -0.47859500    0.31891000
Ge   20.20483000    5.76437000    7.29760000      1.057762   -0.72250900    0.09558000
Ge   20.29186000    5.67685000   17.24586000      0.528217    0.21517500   -0.26481200
Ge   20.43032000   11.49594000    7.35926000      0.272067    0.92731700   -2.19895000
Ge   20.21802000   11.62536000   17.37613000     -0.529526   -0.23631100    0.15182100
Ge   20.15603000   17.54418000    7.16484000     -0.275728    0.75928500   -0.57626400
Ge   20.22115000   17.88963000   16.95782000      2.048733   -2.22683700    0.17738500
Ge   20.29461000   23.19705000    7.24414000     -0.609162   -0.34680800   -0.12482000
Ge   20.51348000   23.21823000   17.34897000     -0.344264    0.51163400   -0.97995800
Ge    2.90182000    2.92318000    4.71465000      0.934905   -0.68377500    0.55438400
Ge    3.04376000    3.02528000   14.72751000      0.421279    0.89768600   -0.07498800
Ge    3.08407000    8.57468000    4.99411000      0.068721    0.02152800   -0.23779800
Ge    2.95186000    8.81152000   14.91192000     -1.295119   -0.71744200   -1.55207600
Ge    2.67749000   14.35442000    5.04083000     -0.465590   -0.31525600   -1.65009300
Ge    3.01209000   14.51703000   14.74474000     -0.033067    1.92437400    0.91618900
Ge    2.59304000   20.33756000    4.76899000      0.762023    0.83589900    1.33393800
Ge    3.18251000   20.40357000   14.54485000     -0.036129   -1.12724300   -0.04741500
Ge    8.69188000    2.80212000    5.13889000      0.425938    1.45385500   -0.74452600
Ge    8.54918000    3.09881000   14.43468000     -0.815249   -0.53275900    0.48909600
Ge    8.91267000    8.66569000    4.68044000     -0.234417   -0.96033800    0.51807900
Ge    8.99281000    8.70327000   14.77190000     -0.596518   -1.14139700   -0.24405600
Ge    8.74873000   14.38506000    4.80509000     -1.181285    0.91472900    0.97727000
Ge    8.59673000   14.31250000   14.60372000     -0.663807   -0.11216100   -0.42003600
Ge    8.66388000   20.29190000    5.24665000      0.146388   -0.31602300   -0.60313400
Ge    8.59865000   20.32922000   14.52383000      1.458176    0.01632900    0.37166000
Ge   14.65281000    2.73064000    4.96149000     -0.318492    0.43588300   -1.45142000
Ge   14.44462000    3.00052000   14.33244000      1.338658   -1.99582700    1.54462800
Ge   14.76600000    8.91544000    4.55010000      0.457971    1.02780800    0.25869100
Ge   14.60820000    8.40101000   14.47959000     -0.716718    1.36666700    1.38269300
Ge   14.78931000   14.98137000    4.92642000     -0.949389   -0.68724700    0.27471000
Ge   14.35477000   14.23539000   14.44499000      0.641179    0.54527000   -0.23985700
Ge   14.72879000   20.32385000    4.96882000     -0.537575   -0.25824200    0.64905000
Ge   14.50858000   20.68245000   14.59163000     -1.923249    0.23557000    0.21585700
Ge   20.11206000    3.10463000    4.87072000      1.489118    0.27606000   -0.59733400
Ge   20.60858000    2.93702000   14.80934000     -0.784267   -0.56253500   -0.68603300
Ge   20.28448000    8.54566000    4.72908000      0.379226   -0.09741200   -0.24971900
Ge   20.41766000    8.52093000   15.04326000     -0.929819   -0.04477200   -0.21583100
Ge   20.08337000   14.34958000    4.95999000      0.936881   -0.24007400   -0.35149700
Ge   19.88954000   14.23801000   14.65111000      0.347183   -0.59216100    1.03528000
Ge   20.33995000   20.36072000    4.77362000     -0.101733   -0.15166600   -0.43536800
Ge   19.99494000   20.30568000   14.59508000      1.394435    0.25717100    0.21627300
Ge    6.14983000    2.76248000    2.40615000     -1.459526    0.32243500    0.43943800
Ge    5.54293000    3.24546000   12.04294000      0.374025    0.16329000   -0.18853700
Ge    5.86611000    8.77783000    2.56410000      0.145416   -0.23911000   -0.04827800
Ge    5.95202000    8.64260000   12.33138000      0.767980   -1.22541200   -0.45891000
Ge    5.77729000   14.46908000    2.30434000      0.841589    0.15318500    0.58191800
Ge    5.45594000   14.51266000   12.18736000      1.701537   -0.57244500    0.21648600
Ge    6.03755000   19.89199000    2.61092000     -0.757410    2.21457400    0.31655400
Ge    6.03860000   20.28327000   12.16365000      0.368213   -0.66673700   -1.17495400
Ge   11.57651000    2.93937000    2.74505000      0.200013    0.23423600   -1.25410500
Ge   11.54049000    3.08496000   12.20625000     -0.609794    1.01291500   -0.24690000
Ge   11.97623000    8.72781000    2.28923000     -0.497111    0.07830900    0.28512800
Ge   11.66020000    8.88209000   11.97028000     -0.131695    0.36391600    0.32032700
Ge   11.67683000   14.90358000    2.61760000      0.608261   -0.13751000    0.01682900
Ge   11.54886000   14.20902000   12.14989000     -0.441584    1.49687800    0.16240100
Ge   11.87926000   20.47681000    2.81598000     -1.362620    0.46314000   -0.10439700
Ge   11.62739000   20.04112000   12.03383000     -1.565689    1.04687700    2.12058200
Ge   17.16519000    2.91576000    2.36055000     -1.017192    0.04824100   -0.49604900
Ge   17.49750000    2.65361000   12.52707000      0.220351    1.94599800    0.01832600
Ge   17.32370000    8.54524000    1.92250000      1.595600    0.38373200    0.24499500
Ge   17.60607000    8.45631000   12.17701000      0.547312   -0.73859500    0.09862000
Ge   17.51072000   14.82411000    2.16990000     -0.586380   -0.30774900   -0.02331400
Ge   17.38448000   14.26664000   12.21989000     -0.796951   -0.65314600   -0.85837700
Ge   17.32561000   20.39807000    2.11408000      0.676464   -0.09301400    0.94578900
Ge   16.90048000   19.94929000   12.05675000      1.060664    0.70439500   -0.63575700
Ge   22.94159000    3.05667000    2.52263000      0.406316    0.05615700   -0.49936700
Ge    0.20775000    3.34342000   12.28491000     -1.042029   -0.85394500   -0.36107500
Ge    0.13441000    8.36012000    2.50125000     -0.891267    1.03596600   -0.19187200
Ge    0.00686000    8.80577000   12.58375000      0.172668   -0.61733300   -0.24493200
Ge   23.02839000   14.43902000    2.40354000      0.615164    0.94544000   -0.39867000
Ge   22.96345000   14.65953000   12.35036000      0.172064    0.14905700    0.65009400
Ge    0.14192000   20.29669000    2.43851000     -0.243328    0.19535100    0.42145600
Ge   23.01572000   20.67606000   12.42477000     -0.973600    0.02511700    0.68856800
Se    1.48287000    1.42024000    1.69352000     -0.080152    0.56086500   -0.16792300
Se    1.32395000    2.05575000   10.52572000     -0.537069   -0.58632200    0.45075200
Se    1.43521000    6.99639000    1.13622000      0.740099   -0.13055300    0.11275400
Se    1.45269000    7.36303000   11.22159000     -0.254661    0.02997900    0.15517000
Se    1.40817000   12.95166000    1.39114000      0.058682   -0.03826800    0.00551800
Se    1.07112000   13.33634000   10.84065000      0.067651   -0.27213500    0.14398400
Se    1.72987000   18.95743000    1.28496000     -0.057835   -0.09897000   -0.02026400
Se    1.15897000   19.31130000   11.11860000      0.722003   -0.20647400   -0.53666400
Se    7.40311000    1.21745000    1.19355000      1.050914    0.00410700   -0.11303000
Se    7.14514000    1.70593000   10.94838000     -0.548752    0.19392900   -0.02664100
Se    7.13542000    7.16383000    1.40792000      0.539754   -0.78390800   -0.68863100
Se    7.31762000    6.96169000   10.87093000     -0.650176    0.82648000    0.41353400
Se    7.78950000   13.10677000    1.36707000     -1.893753    0.20491800   -0.16385700
Se    7.17409000   13.36945000   10.73742000     -0.325332    0.40388000    0.82867100
Se    7.36915000   18.65306000    1.25652000      0.804080   -0.89261100   -0.34142000
Se    7.38377000   18.65345000   10.91006000     -0.867458   -0.17098200   -0.32402000
Se   13.05730000    1.66190000    1.10714000     -0.708545    0.28782600    0.83818900
Se   12.91816000    1.95249000   10.63336000      0.687438   -0.38533700    0.34775600
Se   13.15137000    6.95605000    1.25745000      0.821034    0.41678200   -0.24244000
Se   12.95423000    7.60504000   10.45417000      1.161967    0.07991500    0.42623800
Se   13.14173000   13.57399000    1.11995000     -0.667882   -0.31538700    0.29685300
Se   12.99626000   12.86787000   10.91492000      0.591155   -0.25211900   -0.23557800
Se   13.02647000   19.08004000    1.27256000     -0.312826   -0.18402800   -0.35605100
Se   13.08718000   19.03613000   10.68717000      0.808688   -1.19631700   -1.09024300
Se   18.77569000    1.62822000    1.31707000      0.642936   -0.65015200   -0.46824900
Se   19.21868000    1.39582000   11.67261000      0.367978   -0.68687200   -0.88689400
Se   18.91494000    6.78127000    1.20332000      0.395105    1.15760900    0.55868600
Se   19.04680000    7.23051000   10.66155000     -0.683331   -0.76558200    0.16151500
Se   18.63745000   12.71820000    1.11841000      0.165256    1.40319100    0.78845200
Se   19.05160000   12.99658000   10.91652000     -0.278201    0.07721300    0.34701200
Se   18.96602000   18.94312000    1.19308000     -0.417962   -0.21009600   -0.75864400
Se   18.83472000   18.55951000   11.20991000     -0.725348    0.46100100    0.42548200
Se    4.37515000    3.91282000    1.08544000      0.780587    0.18790500    0.15388700
Se    3.99399000    4.61292000   10.58629000      1.026805   -0.59029000    0.53957600
Se    4.56396000   10.15848000    1.15289000      0.208191    0.97269100   -0.25941900
Se    4.66865000   10.38387000   11.41431000     -1.223415   -0.27825300    0.12600300
Se    4.18511000   15.77956000    0.85611000      0.039025   -0.81282800    1.08748400
Se    4.11157000   15.79515000   10.76845000     -0.673196    0.40656500    0.15566400
Se    4.60956000   21.58024000    1.39343000     -0.368275   -0.71133800    0.64670200
Se    4.41856000   21.75535000   11.40708000     -0.621941    1.25438300   -1.22163300
Se   10.15705000    4.58346000    1.45871000      0.285998   -0.70237100    0.02951900
Se   10.11454000    4.55870000   10.81563000      1.052648    0.40983800   -0.09685000
Se   10.35903000   10.20712000    1.39391000     -0.238114    0.42989500   -0.56135500
Se   10.02019000   10.30827000   10.80869000      0.270656   -0.34243700    0.30556700
Se   10.05680000   16.30462000    1.51273000     -0.037542    0.13195000   -0.18505400
Se   10.19478000   16.05680000   11.13253000      0.093850   -0.48287500    0.08663500
Se   10.17268000   21.96428000    1.44906000      0.233514   -0.94066400    0.86499400
Se   10.21761000   21.79640000   11.14011000      0.124643    0.65983800   -0.96198200
Se   15.74409000    4.24166000    0.86513000      0.344014   -0.25841500    0.59708600
Se   16.09355000    4.22505000   11.17190000      0.543539    0.13125100   -0.37634200
Se   15.72182000    9.88748000    0.82652000     -0.281111    0.39453400   -0.28874900
Se   16.28507000    9.72278000   10.68753000     -0.594087    0.54320300    0.31425100
Se   15.91396000   16.37981000    1.01416000      1.445671   -0.13627000   -0.35587100
Se   15.75538000   15.56226000   11.01939000      1.433816    0.78900600   -0.41592400
Se   15.89263000   22.00591000    1.11577000     -1.120614   -0.75642000    0.25668800
Se   15.94046000   21.93480000   10.66014000      0.173680   -1.00518000    0.95507600
Se   21.41785000    4.36080000    0.97299000      1.112685   -0.22385400    0.56815200
Se   21.56240000    4.43791000   11.27516000      1.018074    0.95764600   -0.36365000
Se   21.90915000    9.91409000    1.08657000      0.366715   -0.30598000    0.62292000
Se   21.76287000    9.89336000   11.06173000     -0.457161    0.74710600   -0.32121300
Se   21.99743000   15.94840000    0.66306000     -0.157291   -0.25566200    0.86808400
Se   21.62925000   16.52330000   11.54361000      0.171771   -0.10805900   -0.61255700
Se   21.90054000   21.65127000    1.25427000      0.029954    0.72800800   -0.70512700
Se   21.25273000   22.10330000   11.27206000      1.664791   -0.31632700   -0.15841900
Se    1.31127000    4.55211000    8.64396000      0.103828    0.85065500    0.15961500
Se    1.09127000    4.41365000   18.03400000      0.377452    0.56538200    0.48184200
Se    1.23864000   10.04841000    8.56119000     -0.819123   -0.44011000    0.59052600
Se    1.85257000    9.99227000   18.46294000     -0.515481    1.16309000    0.07669000
Se    1.19934000   16.12365000    8.75066000      0.080928    0.03199800    0.16629200
Se    1.84715000   16.17887000   18.50642000     -0.036478   -0.40236800   -0.30263900
Se    1.34142000   21.99623000    9.04048000     -0.512661   -0.32249900    0.10829200
Se    0.96318000   21.89552000   17.74160000      0.403948   -0.05246000    1.06864100
Se    7.31203000    4.09054000    8.38967000      0.021396    1.42540200   -0.00529600
Se    7.32374000    4.25853000   18.34024000     -0.263088   -0.56267400    0.31270300
Se    7.14644000   10.30765000    8.58679000      0.844906   -0.40222500   -0.61621300
Se    7.67801000   10.06624000   18.55207000     -0.628525    0.08405400   -0.00943300
Se    7.14715000   15.84312000    8.43577000     -0.603705   -0.14988700    0.45167000
Se    7.20421000   15.73142000   18.24067000      1.016928   -0.46205300   -0.55018900
Se    7.01662000   21.78370000    8.82997000      0.066534    0.98042100    0.14215200
Se    7.55425000   21.43680000   18.53078000     -0.145107    1.15406000   -0.49524700
Se   13.06284000    4.47528000    8.39779000     -0.600740   -2.52218600    0.34793000
Se   13.15617000    4.33311000   18.37763000      0.920847   -0.45621700   -0.92912200
Se   12.94430000   10.23785000    8.17747000      0.594707    0.05840600   -0.02954800
Se   13.27052000   10.45644000   18.46595000     -0.533472    0.67401100    0.26700200
Se   13.03329000   15.85384000    8.50399000      0.446748   -0.85355700   -0.30880900
Se   12.67209000   16.27141000   18.44792000      0.741369    0.47481200   -0.88027100
Se   13.49650000   22.03355000    8.68415000     -0.307403    0.06773600   -0.02376800
Se   12.88302000   22.01914000   18.37685000      0.597638    0.29095900   -0.32608900
Se   19.00408000    4.01768000    8.43237000     -0.305219    0.57533900    0.07899600
Se   19.05935000    3.92299000   18.30029000     -0.427076    0.71996900    0.23023500
Se   19.24627000    9.97881000    8.49135000     -0.749423   -1.36240200    0.81923100
Se   19.03912000   10.23920000   19.08542000     -0.073787    0.47925100   -1.18270300
Se   19.28804000   15.94044000    8.57244000     -0.787504   -0.78096600    0.58510000
Se   19.38134000   16.02919000   18.11784000     -1.039769    0.53531800    0.48926200
Se   19.08412000   21.70370000    8.92743000      0.689564    0.16532400   -1.15969000
Se   19.07024000   21.84023000   18.56059000     -0.662611    0.02619900    0.59394900
Se    4.34313000    1.55004000    8.20857000     -0.313047   -0.05012500    0.43281500
Se    4.48575000    1.15193000   18.39652000      0.134601    0.09241900    0.35588300
Se    4.75745000    7.46361000    8.13394000     -0.737309   -0.13993400   -0.16511400
Se    4.23683000    7.22548000   18.64833000      0.229939   -0.11654800   -0.20263500
Se    3.89782000   13.01477000    8.88600000      0.369719   -0.51316600   -0.07742800
Se    4.78444000   13.18069000   18.13789000     -0.139225   -0.62748300    0.32369100
Se    4.16301000   18.89171000    8.42502000      0.246140   -0.88969700    0.12856800
Se    4.94770000   18.83319000   18.31022000     -0.627751    0.10599700   -0.02530100
Se   10.28706000    1.60027000    8.39739000     -0.252160   -0.67353900    0.37166700
Se   10.02364000    1.53573000   18.14784000      0.168646   -0.26431900    0.46337100
Se   10.13404000    7.46404000    8.35062000     -0.053325   -0.91300000   -0.15915800
Se   10.14756000    7.18266000   18.08353000      0.744684   -0.02179100    0.75600500
Se   10.33116000   13.23180000    8.31703000     -0.911812    0.16817300   -0.46084500
Se   10.27273000   13.21034000   18.12711000     -0.484080   -0.59213100   -0.03828800
Se   10.22184000   18.66588000    8.30844000     -0.118515    0.14851900    0.31192000
Se    9.64123000   18.98880000   18.15245000      0.208625    0.14831700   -0.00630900
Se   16.58715000    1.65516000    8.79415000     -0.469839   -0.63608600   -0.33434900
Se   16.34890000    1.53653000   17.75695000     -0.337108   -0.48947000    0.79834400
Se   16.13591000    7.04750000    8.42173000     -0.647690    0.32315900   -0.47156800
Se   16.38241000    7.12425000   18.09985000     -0.419358   -0.09317000    0.02909800
Se   16.16811000   12.93679000    8.94164000     -0.037033   -0.49987900   -0.44844500
Se   15.84807000   13.50069000   18.12633000     -0.076045   -0.83111700   -0.19902500
Se   16.03774000   18.54170000    8.85415000      0.776452    0.94182500    0.58638800
Se   16.06026000   18.81335000   17.63442000      0.291102    0.32168800    0.76208200
Se   21.49626000    1.67441000    8.27854000      0.727531   -0.19180300    0.57528600
Se   22.01471000    1.48715000   18.41348000     -0.164664    0.43264100    0.29130000
Se   21.49629000    7.29853000    8.58889000      0.477221    0.35864300    0.22222300
Se   21.54810000    7.55278000   18.16740000      0.445157   -1.35633700    0.64825700
Se   21.80293000   13.10602000    8.39032000     -0.368539    0.37291000   -0.20447900
Se   21.78362000   13.00859000   18.56795000      0.107696    0.41355000   -0.53643300
Se   21.87065000   18.91430000    8.06810000      0.055426    0.67204400    0.80681000
Se   22.21768000   18.98379000   17.68943000      0.231753    0.09118800    0.58786000
Se    1.42083000    1.41183000    5.88441000     -0.201908   -0.16068000    0.55813200
Se    1.71751000    1.70387000   16.07032000     -0.537927   -0.93418100    0.44498500
Se    1.40525000    7.41073000    6.43942000      0.093361    0.65193700   -1.07701100
Se    1.35843000    7.28161000   15.93381000      0.553383    0.31223700   -0.09031200
Se    1.24507000   12.75726000    5.97714000      0.017652   -0.27956600    0.28109200
Se    1.72040000   12.94905000   15.97469000     -0.537506   -0.02407100    0.43578600
Se    1.15358000   18.87154000    6.19038000      0.459849    0.29676400   -0.69187700
Se    1.75176000   18.78897000   15.78239000      0.512300    0.21387800    0.06330700
Se    7.35776000    1.16339000    6.03151000     -0.554124   -0.74596900    0.81381000
Se    6.87906000    1.60058000   15.69684000      1.605675   -0.25185300    0.15512800
Se    7.24246000    7.03699000    5.81949000      0.296572    0.99504100   -0.89098400
Se    7.17160000    7.29266000   15.78542000      1.552354   -0.19349700    0.27310100
Se    7.17150000   12.63953000    5.59071000      0.838768    0.78894300    0.77856100
Se    7.06274000   12.71082000   15.64846000      1.211578    0.17264700    0.26674800
Se    7.01281000   18.76307000    6.00057000      0.629653   -0.18619900    0.43104300
Se    7.07309000   18.87769000   15.63203000     -0.248014   -0.12965900    0.22969500
Se   13.37378000    1.46148000    6.44621000     -1.734571    0.59040500   -0.56986400
Se   12.89356000    1.56924000   15.63975000      0.103330    0.35197900   -0.11828100
Se   13.43348000    7.32275000    5.60828000     -0.782481   -0.79813800    1.08561300
Se   12.97767000    7.48104000   16.20185000      0.302620    0.33296800   -1.04598400
Se   13.22435000   13.42820000    6.15114000      1.177665   -0.16644200    0.03562700
Se   12.69902000   13.30962000   15.79770000      0.011323   -0.83656600    0.34504000
Se   13.47937000   18.56606000    6.36677000     -0.437779    1.23941100   -0.99396700
Se   12.87803000   19.22378000   15.86715000      0.921705   -0.17062400   -0.19269800
Se   18.81840000    1.45603000    5.82818000     -0.602628   -1.12653400    0.92968800
Se   19.05064000    1.55524000   16.02416000      0.826761   -0.73624400    0.19005900
Se   18.87134000    7.17968000    6.02778000     -1.248875    0.13097100   -0.02779200
Se   18.76037000    7.00390000   15.97731000      0.449329    0.51671400   -0.22152000
Se   18.70197000   12.93194000    6.21989000      0.620833   -0.50617100    0.25300000
Se   18.45657000   12.89678000   16.19522000      1.205066   -0.12073800   -0.27804500
Se   18.69783000   19.21308000    6.06440000      0.382881   -0.47675600    0.40386000
Se   18.58089000   19.01727000   15.95814000     -1.360239    0.51467400   -0.60209200
Se    4.30740000    4.37820000    6.21076000     -0.283236   -0.31323000   -0.59057100
Se    4.43214000    4.50807000   16.25884000      0.482462   -0.86492700   -1.09959600
Se    4.56684000   10.10885000    6.35056000     -1.566145    0.07929700   -0.28567500
Se    4.50675000    9.95654000   16.06120000      1.433527    0.66320800    0.52964100
Se    4.13590000   15.74245000    6.11639000      0.501872    0.77550000    0.74001200
Se    4.79350000   16.02579000   15.84670000     -1.664437   -0.34409000   -0.08943600
Se    4.14334000   21.75491000    6.20138000     -1.008991   -0.33968200    0.13646000
Se    4.52697000   21.78009000   16.08919000      0.188567   -0.61295400   -0.86295400
Se   10.32240000    4.34873000    6.05572000     -1.026538    0.15127300    0.34339400
Se   10.14288000    4.29220000   15.87651000     -0.244328   -0.24225500   -0.54376000
Se   10.21728000    9.99109000    6.16710000     -0.070662    0.51995900    0.24145500
Se   10.43561000   10.16642000   15.90274000      0.013990    0.24296900    0.16173800
Se   10.15384000   15.78570000    6.28086000     -0.591923   -0.24853300   -0.61801600
Se    9.99667000   15.85682000   15.83422000      0.385501   -0.33803100   -0.26396400
Se   10.10818000   21.58052000    6.57241000      0.366167    0.17682900    0.14719100
Se   10.08574000   22.02999000   15.56555000     -0.482528   -0.38027300    0.10522700
Se   16.02966000    4.18984000    6.09643000      0.674728    0.68896600    0.63012800
Se   15.81241000    4.38102000   15.87309000      0.510731   -0.41790600   -0.48860800
Se   16.20047000   10.49665000    5.79286000     -0.456947   -0.02582500    0.41689600
Se   15.81262000   10.30480000   15.84955000      0.073422   -0.43190600   -0.40825900
Se   16.46034000   15.80346000    6.45255000      0.065497   -0.14540200   -0.53594200
Se   15.69796000   15.64825000   15.95499000      0.025897    0.05916200   -0.40081600
Se   16.24282000   21.80268000    6.00917000      0.387502    0.72439500    0.80588700
Se   15.83691000   22.27523000   15.65812000      0.558507   -0.42442900    0.49620100
Se   21.86922000    4.68266000    5.88073000     -1.363550   -0.91688000    0.22701800
Se   21.96241000    4.42179000   15.95397000      0.080421    0.54891800    0.40651800
Se   21.80104000    9.89526000    5.98750000     -0.095689    0.72028500    0.18700600
Se   21.71550000   10.17383000   16.16878000     -0.071406    0.36329500   -0.05644200
Se   21.45519000   16.29785000    5.61444000      0.404938   -0.70003500    0.55471900
Se   21.33612000   15.79270000   15.65879000      0.480240    0.86236800    0.45444700
Se   21.82458000   21.86932000    5.90432000     -0.168718    0.09786300    0.17304900
Se   21.66889000   21.60472000   15.94982000     -0.600732    0.10705200   -0.48337900
Se    4.57732000    1.27871000    3.61875000     -0.465473    1.14407700    0.25889300
Se    4.27920000    1.52175000   13.27172000      0.013976    0.99864800    0.04654300
Se    4.53361000    7.03977000    3.58230000     -0.473216    1.01775000    0.74814500
Se    4.50526000    7.29898000   13.70204000     -0.450822    0.17603900   -0.11049400
Se    4.21246000   12.98442000    3.54921000      0.071428    0.56687500    0.22434500
Se    4.14328000   12.93742000   13.54664000      0.818303   -0.24491200   -1.17784200
Se    4.21989000   18.91301000    3.71330000     -0.214813   -1.05343300    0.23877800
Se    4.50540000   18.72855000   12.94700000     -0.900634    0.66629700    1.39668500
Se   10.13162000    1.35623000    3.90590000      0.549834    0.36295600   -0.35567200
Se    9.73992000    1.63538000   12.86955000      0.464154    0.09234400    0.70850300
Se   10.50406000    7.26957000    3.53427000     -0.323747    0.21815400    0.20150200
Se   10.46009000    7.33072000   13.34417000     -0.213113   -0.00599800    0.22124300
Se   10.33458000   13.11677000    3.80641000      1.545722   -0.23444400   -1.10324900
Se    9.95082000   12.83402000   13.23135000     -0.089336    0.11166700    0.29668900
Se   10.36091000   18.96086000    4.15473000      0.726353    0.24065800   -0.41191700
Se    9.95750000   18.60655000   13.60598000      0.886255    0.80127000   -1.03759300
Se   15.96162000    1.27134000    3.53827000     -0.375249    0.01048400    0.57045300
Se   15.80419000    1.26272000   13.20129000     -0.950490    0.23616800    0.44034100
Se   16.09789000    7.29521000    3.40314000     -0.684377   -0.53950900    0.51246700
Se   16.20930000    6.99103000   13.59156000      0.380177   -0.38000300   -0.40343700
Se   15.58093000   13.67140000    3.15624000      0.561351   -0.70023800    0.03262000
Se   15.86418000   12.70601000   13.19799000     -0.272487    0.09948500    0.57295800
Se   15.90212000   18.97648000    3.43588000     -0.024474   -0.58512300   -0.25055200
Se   15.36321000   18.84535000   13.46389000      0.461507   -0.91139000   -0.32503000
Se   21.58599000    1.50620000    3.69670000     -0.176826    0.56890900    0.03336800
Se   22.11819000    1.59470000   13.42804000     -0.148229    0.45979900    0.18016300
Se   21.78193000    6.95422000    3.66253000      0.347312    0.55342200   -0.11889600
Se   22.05538000    7.19842000   14.03173000      0.449964   -0.04435400   -0.92646600
Se   21.48647000   13.01956000    3.43966000     -0.561111   -0.41809800    0.39884800
Se   21.43281000   12.97986000   13.31980000      0.379113    0.17641200   -0.07104700
Se   21.93491000   18.75694000    3.77850000     -0.107451    0.83763700   -0.41936700
Se   21.84922000   18.90858000   13.79095000     -0.330639    0.99139400   -0.41488800
Se    1.31712000    4.46301000    3.80413000     -0.100264   -0.18262400   -0.41992000
Se    1.35839000    4.67492000   13.83915000      0.986504   -0.28386300   -0.07487000
Se    1.77351000    9.88986000    3.35727000     -0.047971   -0.11861300    0.57581200
Se    1.51765000   10.35070000   13.47257000      0.588957   -0.10426200    0.72220800
Se    1.01788000   15.87664000    3.97180000      0.378030   -0.57387100   -0.35302200
Se    1.22651000   16.01349000   13.98004000     -0.010400   -0.80754300   -0.79514600
Se    1.46693000   22.02108000    3.51258000     -0.160048   -0.70901500    0.20473300
Se    1.43038000   21.88556000   13.76476000      0.080852    0.22250300   -0.22995100
Se    7.25236000    4.44403000    3.75555000      0.403419   -1.06478200    0.12918700
Se    7.32635000    4.72410000   13.06077000     -0.479874   -0.62156000    0.20757900
Se    7.52393000   10.21170000    3.62777000     -0.800403   -0.20129400   -0.50481700
Se    7.54532000   10.00403000   13.40609000      0.148877    0.58530100   -0.08840400
Se    7.49838000   16.02398000    3.58113000     -0.846458   -0.74564200   -0.21261200
Se    7.17858000   15.88975000   13.39816000     -0.304930   -0.46975200   -0.23659400
Se    7.59462000   21.53474000    3.53030000     -0.634174    0.10072000    0.03267600
Se    7.59337000   21.77873000   13.00589000     -0.113413    0.57349900    0.42140000
Se   13.39464000    4.32501000    3.54518000     -0.230486   -0.66438900    0.69748100
Se   13.02463000    4.60962000   13.86699000     -2.137382    0.93298300   -1.87804500
Se   13.21331000   10.42541000    3.36992000      0.592294   -0.70977400    0.55036300
Se   13.60909000   10.04148000   13.06311000     -0.917311   -0.13816100   -0.24237300
Se   13.29046000   16.49499000    3.73646000     -0.613696   -0.42393200    0.02851200
Se   12.97473000   15.83472000   13.32613000     -0.086740   -0.46776000   -0.34456800
Se   13.38228000   22.00490000    3.98450000     -0.693657   -0.45443700   -0.32671500
Se   12.70446000   21.83672000   13.32331000      0.516992   -0.70698100    0.04027800
Se   18.56326000    4.36953000    3.45706000      0.830034    0.93195200    1.02097200
Se   18.63063000    4.25707000   14.05012000      0.118761   -0.62582700   -0.65275300
Se   18.93046000    9.91483000    3.34996000     -0.220392    0.15354200   -0.19110000
Se   19.15160000    9.81195000   13.41695000     -0.147427    0.42665700    0.13791300
Se   18.75465000   15.92906000    3.96386000     -0.883675    0.67844600   -1.24358400
Se   18.49074000   15.72995000   13.60798000     -0.223934    1.03735900   -0.17661800
Se   18.68923000   21.75296000    3.61074000      0.477465    0.11981500   -0.17427000
Se   18.40638000   21.46549000   13.27472000     -0.003725    0.41479000   -0.13403600
