384
23.23808000 23.23808000 19.51320000
Ge    5.81771000    5.78731000    9.38846000      0.119773   -1.03734400    1.00084200
Ge    5.82047000    5.64173000    0.05883000      0.083344   -0.39628500   -0.01983100
Ge    5.73338000   11.73805000    9.94441000      0.056618   -0.80845000   -2.25053600
Ge    6.23179000   11.73812000   19.50986000     -0.098426   -0.06042700    0.38691200
Ge    5.72454000   17.39857000    9.79681000     -0.242461   -0.77881200   -0.91157300
Ge    5.83551000   17.13567000    0.06408000      0.372590    0.83924300   -0.32818200
Ge    5.55778000    0.32354000    9.90724000      0.338185   -2.01114300   -0.15554700
Ge    5.92427000   22.89019000    0.11610000     -0.558053    1.14217800   -0.10662000
Ge   11.49499000    5.97304000    9.34403000      0.986964    0.60065900    1.87525500
Ge   11.69695000    5.69414000   19.48390000     -1.551386   -0.21491400    0.10727200
Ge   11.54328000   11.63295000    9.53024000      0.246537    0.08694100    0.34555500
Ge   11.53987000   11.89913000    0.12087000      1.132750    0.28682900   -0.29615300
Ge   11.64090000   17.30459000    9.69909000     -0.164577    0.24604600    0.03841300
Ge   11.25658000   17.77758000    0.00671000      0.280047   -0.44451900    0.80373900
Ge   11.71475000    0.10707000    9.74916000     -0.627646   -0.22643600   -0.14441000
Ge   11.53918000    0.21840000    0.11936000     -0.533888   -1.00468300   -0.57121700
Ge   17.42468000    5.55958000    9.62001000      0.561645   -0.40833100    0.69657700
Ge   17.52413000    5.44651000   19.43935000     -0.544703    0.48330300   -1.00183000
Ge   17.84156000   11.38281000    9.78832000     -1.294016    0.47641900   -0.19707400
Ge   17.03755000   11.63822000   19.34798000     -0.704966    0.09232100   -0.01146700
Ge   17.49529000   17.04552000    9.83951000      0.279464   -0.65325200    1.07073900
Ge   17.66523000   17.56566000   19.10082000     -0.754128   -0.69874500    1.31972700
Ge   17.85121000    0.04837000   10.15359000      0.495160   -0.19894800   -0.23634800
Ge   17.46212000    0.10229000    0.01966000     -0.384228   -0.02812800   -1.03199400
Ge   23.06928000    6.07241000    9.97143000     -0.501711   -0.70722100   -0.00244100
Ge   22.96533000    5.98042000   19.44210000     -0.189963   -0.39220400   -0.37103000
Ge   22.96087000   11.56552000    9.75203000      1.338336    0.17083600   -0.07539400
Ge    0.12936000   11.46295000   19.51114000     -0.384753    0.24610400   -0.08517900
Ge   23.09438000   17.85810000    9.93541000     -1.163686   -1.84663000   -0.46176200
Ge    0.22580000   17.59107000   19.42872000     -1.859430    1.41416300   -0.20295600
Ge   22.92093000    0.26228000    9.89579000     -0.833565    0.68667200    0.28735900
Ge    0.20498000    0.10128000    0.23368000     -0.836072   -1.01468800   -0.80100500
Ge    3.01490000    5.93599000    7.35645000     -0.241447   -0.08745000    0.30621400
Ge    2.84247000    5.94965000   17.28546000     -0.890578   -1.81645000   -1.20888700
Ge    2.67974000   11.56046000    7.43310000      0.243370   -1.00735900    0.35932100
Ge    3.23479000   11.58001000   17.21916000     -0.295301    0.15936200    0.16931900
Ge    2.66813000   17.34703000    7.32222000      0.069246    0.19504600    0.08433400
Ge    3.28313000   17.43849000   17.19281000      0.320867    0.29304500   -0.29148800
Ge    2.63474000    0.06029000    7.58771000      0.622001   -0.60429900   -1.86074400
Ge    2.98584000   23.07109000   17.05295000     -0.875101    0.66588300    0.53615000
Ge    8.58129000    5.75937000    7.30855000      1.830891    1.09590100   -0.77171000
Ge    8.59754000    5.72775000   16.97613000      0.055059    0.37655500    0.29265000
Ge    8.82373000   11.69682000    7.24832000     -0.944158   -0.51815800   -0.55849700
Ge    8.69051000   11.47799000   17.02038000      1.159340    0.32982400    0.76756100
Ge    8.52212000   17.24266000    7.24243000      0.455446    0.94149900   -0.10594000
Ge    8.45728000   17.32217000   16.88282000     -0.539093   -0.25349500    1.18809600
Ge    8.71010000   23.16417000    7.68808000     -0.118099   -0.40438200   -0.99036000
Ge    8.53957000    0.02140000   17.07503000      0.197445   -0.46587400   -0.56467600
Ge   14.61666000    5.65633000    7.18586000     -0.588218    0.43686100   -0.87826700
Ge   14.48879000    5.97742000   17.12460000      0.510695   -0.51786300    0.30336800
Ge   14.78453000   11.70175000    7.40873000     -1.034727    0.29775300   -0.63492100
Ge   14.39233000   11.92191000   16.84576000      0.308413   -0.33705200    0.62728900
Ge   14.83761000   17.15328000    7.48051000     -0.818647    0.55022800    0.19321700
Ge   14.26243000   17.57805000   16.85157000     -0.602289   -0.95660300    0.23203800
Ge   15.07175000    0.27351000    7.42306000     -1.480748   -0.39773400    0.89374800
Ge   14.28157000    0.35963000   16.96675000      0.619476   -0.78579800    0.94904000
Ge   20.24197000    5.82449000    7.32054000      0.490625   -1.59824200   -0.16913500
Ge   20.35534000    5.68865000   17.21061000     -0.769567    0.53520800   -0.05257400
Ge   20.54927000   11.50901000    7.38251000     -0.798564    0.40926400   -1.76830100
Ge   20.20520000   11.58026000   17.32405000     -0.712395    0.68879200    0.36433500
Ge   20.13132000   17.56029000    7.12722000     -0.329143   -0.79069800   -0.30792800
Ge   20.12538000   17.86139000   17.02389000      2.988131   -1.41805600   -0.43359200
Ge   20.28727000    0.08699000    7.23162000     -0.419154   -1.39597500   -0.56968000
Ge   20.60884000   23.22683000   17.28676000     -1.184448   -0.11720500   -0.62816800
Ge    2.94916000    2.91533000    4.72480000      0.359864   -1.06742100    0.39019000
Ge    3.07490000    3.00273000   14.74551000     -0.093730    0.78462600    0.18472100
Ge    3.04208000    8.59477000    5.06623000      0.718105   -0.21949900   -0.60780500
Ge    2.94490000    8.71960000   14.81646000      0.333312    0.75936500   -0.60613000
Ge    2.76660000   14.30278000    5.01430000     -1.478823   -0.39653600   -1.65649300
Ge    3.02495000   14.57464000   14.78348000     -0.488870    0.72852900    0.32104700
Ge    2.52474000   20.44564000    4.74030000      1.566185   -0.34630700    1.83448000
Ge    3.27690000   20.38238000   14.49898000     -0.807715   -1.14880900    0.14626300
Ge    8.70838000    2.84393000    5.14716000     -0.025165    0.07907300   -0.83802900
Ge    8.57740000    3.14154000   14.46428000     -0.706470   -1.10866500   -0.25681000
Ge    8.94397000    8.62310000    4.69425000     -0.456876   -0.60821800    0.81829900
Ge    8.80486000    8.70770000   14.76444000      1.275250   -0.68749400   -0.52451700
Ge    8.74097000   14.47215000    4.80939000     -0.442582   -0.79801500   -0.11640300
Ge    8.51757000   14.28141000   14.61723000      0.637327    0.71497700   -0.33077700
Ge    8.56540000   20.19484000    5.19548000      0.965391    0.48542800   -0.73841000
Ge    8.63845000   20.28355000   14.52783000      0.985087   -0.28136300    0.63521100
Ge   14.69474000    2.71188000    4.93703000     -0.730752    0.25913400   -0.72169800
Ge   14.48363000    2.90344000   14.37936000      0.434113   -0.58640000    1.30862200
Ge   14.82268000    8.91974000    4.53112000     -0.482499    1.31631100    1.15545000
Ge   14.49255000    8.39232000   14.54279000      0.139498    2.07043100    0.14692100
Ge   14.80832000   14.95498000    4.97700000     -1.296344   -0.78046500    0.09885400
Ge   14.39594000   14.26804000   14.45876000      0.528892    0.90081300   -0.72306300
Ge   14.71229000   20.34814000    5.00571000     -0.332330   -0.65812100    0.14227500
Ge   14.46087000   20.71389000   14.48570000     -0.632477   -0.51643400    0.86676500
Ge   20.23242000    3.07402000    4.82904000      0.108980    0.72354200   -0.58200100
Ge   20.58905000    2.88115000   14.75644000     -0.572208    0.83216500    0.73420400
Ge   20.33485000    8.52589000    4.75380000     -0.298691    0.61410900   -0.39371500
Ge   20.51619000    8.50786000   15.02588000     -2.324141    0.89194200   -0.01639100
Ge   20.10374000   14.22038000    4.94762000      0.206660    2.08148800   -0.54474300
Ge   19.84493000   14.22208000   14.70392000      0.804877    0.21051600    0.90518200
Ge   20.36002000   20.35704000    4.75591000      0.082997   -0.00793000   -0.19001700
Ge   20.02162000   20.28617000   14.61979000      0.668856    0.51152100   -0.03482200
Ge    6.14543000    2.80507000    2.39313000     -1.058325    0.06101500    0.66582800
Ge    5.50769000    3.18917000   11.99435000      0.115092    0.15614700    0.41468200
Ge    5.89138000    8.87543000    2.50184000     -0.434830   -1.39428700   -0.21127800
Ge    5.96445000    8.53643000   12.32799000      0.256009    0.06916200   -1.14305100
Ge    5.75231000   14.50947000    2.27320000      1.168049   -0.47879100    0.71631100
Ge    5.44647000   14.46682000   12.15211000      1.197876   -0.35576500    0.09600400
Ge    5.99658000   19.90086000    2.58480000     -0.217199    2.19981000    0.17258500
Ge    5.98892000   20.13257000   12.11654000      1.300970    1.81979600   -0.86745100
Ge   11.65154000    2.93830000    2.74803000     -1.568100   -1.14994200   -0.97212200
Ge   11.57811000    3.10964000   12.13590000     -0.552085    0.70141800    0.17432500
Ge   11.97299000    8.79330000    2.34577000     -0.862255   -0.47370500   -0.68728800
Ge   11.68241000    8.88565000   12.05367000      0.247874    0.22682100   -0.82165500
Ge   11.72240000   14.94208000    2.65016000     -0.408046   -1.44765000   -0.56596700
Ge   11.59430000   14.17601000   12.20257000     -0.864105    1.20236500    0.01042700
Ge   11.83175000   20.55129000    2.79814000     -1.290957   -0.31048200   -0.43497800
Ge   11.55514000   20.04049000   12.03663000     -0.353027    0.26769500    1.24095400
Ge   17.09298000    2.88424000    2.34921000      0.229773    0.34877000    0.18197000
Ge   17.51742000    2.67695000   12.45387000      0.378206    1.20955900    0.05006800
Ge   17.40037000    8.61256000    1.95575000      0.051325   -0.51066900    0.51864600
Ge   17.57299000    8.48499000   12.18522000      0.355827   -1.27844600   -0.00484500
Ge   17.39647000   14.82640000    2.16970000      1.383689   -0.18190500   -0.01117800
Ge   17.35790000   14.21556000   12.21464000     -0.223421    0.89599400   -0.46090100
Ge   17.28163000   20.37483000    2.18352000      0.207308    0.61672300    0.21318900
Ge   17.00670000   19.98344000   12.02880000     -0.908057    0.24267300   -0.13953800
Ge   22.98290000    3.02722000    2.45912000      1.036605    0.63187500   -0.41600700
Ge    0.17165000    3.43905000   12.32381000     -0.785259   -1.25217600   -0.46006600
Ge    0.15240000    8.44958000    2.54126000     -0.293143    0.21154100   -1.10951300
Ge    0.02895000    8.85755000   12.54546000     -0.082715   -0.24593600   -0.24182300
Ge   23.03989000   14.49053000    2.39185000      0.137581    0.18813000   -0.39008400
Ge   22.95517000   14.66839000   12.37550000      0.126323    0.91025200    0.22034900
Ge    0.13027000   20.28292000    2.46669000     -0.380635    0.76311600    0.45639400
Ge   23.00526000   20.65894000   12.51031000     -0.999674   -0.21838700    0.03901300
Se    1.58197000    1.42983000    1.66364000     -0.504325    0.55994800   -0.23439700
Se    1.26551000    2.03394000   10.59023000     -0.385509   -0.23923800    0.61457600
Se    1.44350000    6.92905000    1.16760000      0.055896    0.28907400    0.53835400
Se    1.38974000    7.33633000   11.24386000      0.005660    0.04520000   -0.00043700
Se    1.40533000   13.01387000    1.31391000     -0.048804   -0.05182900    0.17100000
Se    1.03629000   13.28852000   10.87517000      0.275961   -0.04047600    0.29294200
Se    1.62391000   18.95780000    1.24221000      0.430729   -0.05231700    0.03856500
Se    1.18045000   19.32725000   11.10660000      0.903437    0.49468500    0.09467700
Se    7.39577000    1.18742000    1.23211000      0.790418    0.05870200   -0.09727700
Se    7.11847000    1.71272000   10.98599000      0.036195    0.03073600   -0.14819300
Se    7.17275000    7.13129000    1.32971000      0.391164    0.16284500   -0.08599300
Se    7.28186000    6.94893000   10.86372000     -0.145866    0.78363400    0.49802300
Se    7.82150000   13.09435000    1.34357000     -2.221924    0.08561000   -0.22245800
Se    7.09159000   13.32615000   10.69586000      0.931686    1.22256800    1.15527700
Se    7.36665000   18.69334000    1.18566000      0.379687   -0.73578600   -0.08441900
Se    7.37299000   18.63044000   10.97564000      0.369213   -0.31721000   -0.46067100
Se   12.99781000    1.62659000    1.19213000      0.465074    0.45909800    0.41049000
Se   12.98779000    1.89993000   10.65595000      0.717302   -0.09282800    0.53263600
Se   13.21426000    6.95321000    1.20955000      0.455531    1.08827400    0.33184800
Se   13.07001000    7.65665000   10.46090000     -0.805555   -0.68309800    0.37719300
Se   13.08836000   13.58873000    1.08120000     -0.835703   -0.53800000    0.14620800
Se   13.09859000   12.82193000   10.97407000     -0.191672   -0.02095700   -0.24182000
Se   12.94838000   18.99787000    1.24288000     -0.118267    0.40358300    0.09552700
Se   13.12942000   18.97658000   10.63096000     -0.244230   -0.18122000    0.04308600
Se   18.75647000    1.61359000    1.29345000      0.493706   -0.30174700   -0.16929400
Se   19.31652000    1.33419000   11.65223000     -0.497599   -0.07616700   -0.44534700
Se   18.89377000    6.83551000    1.14927000      0.310239    0.88243600    0.49865400
Se   19.00192000    7.18417000   10.57546000     -0.682004   -0.40156100    0.71166200
Se   18.67317000   12.71559000    1.11772000     -0.350642    1.59060900    0.81250200
Se   19.04612000   13.08623000   10.91430000      0.181039   -0.03680300    0.33941400
Se   18.93069000   18.98401000    1.19977000     -0.150198   -0.28833300   -0.77196800
Se   18.73332000   18.61993000   11.25218000      0.156926   -0.66720700   -0.41576300
Se    4.45240000    3.95212000    1.02897000      0.270397   -0.03513300    0.46055900
Se    4.03519000    4.58636000   10.53953000      0.685394   -0.59174400    0.50478000
Se    4.54191000   10.20643000    1.09835000      0.268046    0.70888200   -0.06922500
Se    4.62086000   10.40605000   11.39529000     -1.076837   -1.40715300    0.79555200
Se    4.14718000   15.80330000    0.99208000      0.152943   -0.25338200    0.62798000
Se    4.09865000   15.77859000   10.72507000     -0.047006    0.62370300    0.30932100
Se    4.56017000   21.57463000    1.42953000     -0.544425   -0.52571300    0.42724800
Se    4.45654000   21.81398000   11.52315000     -0.495589    1.06785500   -1.29281200
Se   10.18954000    4.47233000    1.48759000      0.243349   -0.28769900   -0.05984300
Se   10.17060000    4.66970000   10.86330000      0.191673   -0.15398600    0.14293800
Se   10.27759000   10.25081000    1.29166000      0.303919   -0.33392800    0.02469500
Se   10.02152000   10.36535000   10.83846000      0.386631   -0.40037000    0.39532700
Se   10.03854000   16.26405000    1.52755000      0.130376    0.17401000   -0.28181000
Se   10.17941000   16.16061000   11.19893000      0.575752   -0.97057100    0.00854200
Se   10.20610000   21.93531000    1.42761000      0.542509   -0.29062600    0.30580900
Se   10.18200000   21.79298000   11.08727000      0.231101    0.59806800   -0.69024000
Se   15.76196000    4.18180000    0.78957000     -0.337889   -0.29598400    0.80102300
Se   16.06593000    4.19439000   11.14680000      0.583738    0.15223500   -0.26001000
Se   15.65966000    9.83476000    0.81806000      0.330863    0.46839000   -0.15340700
Se   16.31825000    9.71934000   10.66201000     -0.512715    0.97212800   -0.02820300
Se   15.98122000   16.34104000    0.96047000      0.734603    0.30776200   -0.49416800
Se   15.79109000   15.59020000   10.94301000      1.188173    0.51490500   -0.13770900
Se   15.78780000   22.02477000    1.16991000      0.502396   -0.40035200   -0.18388700
Se   15.99427000   21.95839000   10.66471000     -0.130406   -1.18833600    0.99284100
Se   21.44585000    4.35891000    0.97498000      0.819954   -0.29781500    0.48646700
Se   21.54675000    4.51266000   11.33951000      0.770379    0.96169400   -0.68199700
Se   21.93922000    9.82068000    1.02849000      0.526399    0.14475900    0.62597700
Se   21.73956000    9.99057000   10.99476000     -0.688074   -0.25471100    0.60932200
Se   21.93113000   15.95284000    0.73683000     -0.254160   -0.19861700    0.66113200
Se   21.57967000   16.55983000   11.53453000      0.778280   -0.29917600   -0.78730800
Se   21.86042000   21.67755000    1.28518000      0.209230    0.48832700   -0.52590500
Se   21.26687000   22.04942000   11.23740000      1.649017   -0.23049100   -0.04358000
Se    1.34541000    4.64975000    8.62895000      0.104160    0.07591400    0.23529000
Se    1.07518000    4.48952000   18.06471000      0.397501    0.01993700    0.36350600
Se    1.20949000    9.96961000    8.60344000     -0.085695    1.09956300    0.08886200
Se    1.75986000   10.03500000   18.42938000     -0.056818    0.73239200   -0.04033600
Se    1.21545000   16.09829000    8.81080000     -0.009728    0.31020700    0.17217900
Se    1.75713000   16.15657000   18.65337000      1.529453   -1.38199800   -1.35269500
Se    1.28465000   21.99624000    9.04263000      0.202913   -0.46719800   -0.26203800
Se    1.01834000   21.86345000   17.81157000      0.467990    0.32078800    0.95043900
Se    7.39970000    4.15499000    8.46324000     -0.637592   -0.07232200    0.51365500
Se    7.33190000    4.21881000   18.28520000     -0.383600    0.36405000    0.22295600
Se    7.18275000   10.29428000    8.58159000      0.248931    0.47503900   -0.12370500
Se    7.60494000    9.95566000   18.56718000     -0.277130    0.80845500   -0.54608500
Se    7.21381000   15.80450000    8.49502000     -0.862464    0.17691800    0.65384100
Se    7.18142000   15.70364000   18.27046000      0.640215    0.17944600   -0.27246100
Se    6.97689000   21.73385000    8.74529000      0.100006    1.41313200    0.20015400
Se    7.45236000   21.46553000   18.64146000      0.674670    0.60682300   -1.19952300
Se   12.99069000    4.40923000    8.47762000      0.572918   -0.36828900   -0.65110100
Se   13.19843000    4.25036000   18.38369000      0.200065    0.40158100   -0.56575100
Se   12.91062000   10.18178000    8.26198000      1.082705    0.33509500   -0.35476600
Se   13.24905000   10.50343000   18.42224000     -0.460485    0.26199400    0.22007400
Se   13.07518000   15.86304000    8.47510000     -0.055944   -0.63892900    0.03912300
Se   12.78822000   16.32494000   18.45733000      0.576582   -0.10240500   -0.69937200
Se   13.42289000   22.01872000    8.70125000      0.204234    0.34412600   -0.33882200
Se   12.95209000   22.02545000   18.29240000      0.448288    0.28891900   -0.13725500
Se   18.88970000    4.02862000    8.38733000      0.055177    1.05721600   -0.03881000
Se   19.01577000    3.96636000   18.32017000      0.152867    0.60158200   -0.13204400
Se   19.27723000    9.99962000    8.51798000     -0.561997   -0.85710200    0.56358500
Se   19.10108000   10.34523000   19.10720000      0.050218   -0.54568400   -0.99769200
Se   19.23312000   15.96103000    8.57637000     -0.560066   -0.68232400    0.28693700
Se   19.33284000   16.03951000   18.15255000     -1.019781   -0.03059300    0.70311700
Se   19.12408000   21.76974000    8.78594000      0.204152    0.46441700   -0.52444300
Se   19.10090000   21.83851000   18.58779000     -0.080272   -0.01426000    0.04133300
Se    4.32524000    1.53992000    8.27325000      0.071021    0.41249800    0.59281000
Se    4.41330000    1.20135000   18.38362000      0.304706   -0.53168500    0.36650700
Se    4.80328000    7.42642000    8.14697000     -0.792921    0.25958800   -0.37256800
Se    4.18177000    7.11183000   18.62146000      1.337396    1.58886200    1.01396100
Se    3.93598000   13.01617000    8.84991000      0.057157   -0.04461500   -0.09111200
Se    4.69096000   13.26363000   18.17566000      0.287649   -1.19693000    0.40159800
Se    4.21635000   18.83420000    8.47696000      0.295847   -0.29095600    0.13857800
Se    4.92680000   18.90170000   18.29301000     -0.987714   -0.35755000   -0.16595000
Se   10.31019000    1.62829000    8.32259000     -0.108678   -1.04915700    0.70595700
Se   10.06810000    1.50093000   18.23929000     -0.257817    0.15990000   -0.09795400
Se   10.17852000    7.53212000    8.34737000     -1.190081   -0.52575600   -0.83707000
Se   10.20697000    7.13327000   18.10293000      0.358737   -0.13383400    0.50532600
Se   10.30965000   13.27825000    8.26358000     -0.111060   -0.15345700    0.17109500
Se   10.25105000   13.23870000   18.14613000     -0.781836   -0.72720200   -0.33830400
Se   10.22993000   18.66746000    8.30852000     -0.361738    0.15006100    0.03477900
Se    9.65597000   18.91809000   18.18765000      0.210741    0.44275200   -0.06709900
Se   16.52929000    1.56385000    8.86105000     -0.313065    0.55678100   -0.41560500
Se   16.39981000    1.53771000   17.73878000     -0.706306   -0.54050200    0.51240100
Se   16.03448000    7.04678000    8.41497000      0.117080    0.53028000    0.09751400
Se   16.41970000    7.24273000   18.10915000     -0.731705   -1.20294900   -0.06296600
Se   16.14706000   13.01710000    8.90056000      0.212047   -1.08786900   -0.22532900
Se   15.89087000   13.50025000   18.15237000     -0.191269   -1.18736600   -0.35117100
Se   16.07713000   18.55991000    8.89002000     -0.355079    1.35841700   -0.39841600
Se   16.09138000   18.79665000   17.71049000      0.161151    0.73985800    0.44579000
Se   21.53391000    1.64684000    8.29113000      1.269794    0.40133900    1.15077300
Se   21.95865000    1.51449000   18.41596000      0.396181    0.36461200    0.60884900
Se   21.55903000    7.34914000    8.51651000      0.600877    0.36685800    0.41772100
Se   21.62378000    7.54777000   18.14590000      0.019601   -0.91683000    0.53273200
Se   21.77159000   13.16040000    8.40064000      0.384501    0.12830100    0.43729500
Se   21.72099000   13.01945000   18.53101000      0.491304   -0.22261800   -0.36616400
Se   21.78847000   18.82948000    8.06682000      0.975739    1.40265400    1.21701700
Se   22.23569000   18.98125000   17.55996000     -0.059740   -0.49957100    0.97970600
Se    1.38375000    1.37716000    5.94103000      0.350795    0.28999300    0.27122100
Se    1.71416000    1.66040000   16.10536000     -0.443931   -0.42235000   -0.00013700
Se    1.46639000    7.45643000    6.47606000     -0.229361    0.12614400   -0.73950100
Se    1.42360000    7.30647000   15.92990000     -0.038346    0.12282400    0.15416300
Se    1.22455000   12.76067000    5.99584000      0.140364    0.17579600   -0.02949500
Se    1.68357000   12.92289000   15.98072000      0.057786    0.30408800    0.19987700
Se    1.12601000   18.91431000    6.23283000      0.824723   -0.02175000   -0.54245100
Se    1.78179000   18.73787000   15.83114000      0.558629    0.54870300   -0.36411900
Se    7.31091000    1.15637000    6.03879000     -0.093358   -0.12567800    0.52497900
Se    6.99370000    1.60525000   15.66903000      0.940612   -0.33679700    0.31921600
Se    7.26108000    7.11323000    5.84235000      0.469731    0.34759200   -0.41221900
Se    7.17153000    7.33446000   15.80761000      0.339989   -0.43099300    0.30092700
Se    7.27643000   12.68599000    5.57760000      0.508427    0.45459000    0.87013500
Se    7.15152000   12.71998000   15.65703000     -0.617373   -0.36651600    0.37873700
Se    6.94928000   18.68448000    5.93777000      0.360146   -0.47880900    0.61573100
Se    7.06746000   18.80010000   15.71981000     -0.287982    0.71489500   -0.48372200
Se   13.27411000    1.52997000    6.37616000      0.124086   -0.26381000    0.23216200
Se   12.84490000    1.54347000   15.63753000     -0.284016    0.71934500   -0.49002200
Se   13.40836000    7.36499000    5.65667000     -0.250027   -0.57948800    0.97221000
Se   12.96364000    7.52190000   16.08137000     -0.361569   -0.58846100    0.16920400
Se   13.25366000   13.42981000    6.31577000      1.243429   -0.16488900   -0.45652400
Se   12.76293000   13.30441000   15.74895000     -0.432800   -0.93555400    0.45538100
Se   13.41742000   18.67788000    6.33497000      0.075597    0.61989300   -0.53254000
Se   12.89305000   19.27580000   15.86505000      0.697970   -0.11739900   -0.07617600
Se   18.84725000    1.48516000    5.87106000     -0.473943   -0.55990100    0.33753700
Se   19.07147000    1.57473000   16.08274000      0.887428   -0.79927800    0.01674600
Se   18.85641000    7.16092000    5.98868000     -0.835932    0.21709000   -0.02111700
Se   18.79484000    7.11899000   15.96762000      0.548446    0.11411700    0.10208000
Se   18.78142000   12.90710000    6.23474000     -0.065427   -0.98994900    0.66977500
Se   18.41308000   12.90250000   16.20976000      1.126588   -0.22014500   -0.23845100
Se   18.75460000   19.14628000    6.06792000     -0.328644    0.17541100   -0.09440700
Se   18.54170000   19.03435000   15.97921000     -1.175316    0.74960900   -0.81212000
Se    4.35942000    4.30899000    6.23391000     -0.230345   -0.13730500   -0.50618800
Se    4.44835000    4.52078000   16.15525000     -0.231303   -0.24484100   -0.45797100
Se    4.43209000   10.11293000    6.49308000     -0.610615   -0.02818600   -0.70379100
Se    4.56557000    9.96522000   16.07887000      0.114568   -0.03804600   -0.18069300
Se    4.14185000   15.67878000    6.10296000      0.717118    1.56935500    1.25080300
Se    4.77479000   15.99819000   15.86473000     -1.263059   -0.30584500   -0.03708900
Se    4.19567000   21.63977000    6.16790000     -1.404739    0.31924000    0.45213000
Se    4.57268000   21.75384000   16.02087000      0.705053   -0.58886200   -0.80573000
Se   10.26780000    4.31740000    6.12901000     -0.537836    0.50456400    0.56631500
Se   10.10248000    4.26342000   15.88904000      0.266423    0.13071200   -0.39475100
Se   10.23717000    9.99390000    6.14365000      0.082939    0.47878000    0.28301700
Se   10.36474000   10.10131000   15.92640000     -0.487288    0.15130100    0.01372300
Se   10.11759000   15.77627000    6.20849000     -0.136007    0.37545100   -0.13633400
Se    9.92955000   15.90833000   15.82461000      0.618359   -0.93313400   -0.65281400
Se   10.12777000   21.52767000    6.43298000     -0.600539    0.48173700    0.50659300
Se   10.11663000   21.93788000   15.57145000     -0.894157    0.11430800    0.55626700
Se   16.12565000    4.19804000    5.99724000      0.433052    0.53668400    0.42266500
Se   15.86081000    4.36284000   15.82932000     -0.187857    0.06632300   -0.07388400
Se   16.22790000   10.54689000    5.80584000     -0.342661   -0.33091900    0.03588400
Se   15.82098000   10.23898000   15.80951000     -0.153493   -0.13846200   -0.08672800
Se   16.45552000   15.82291000    6.51702000      0.321013   -0.14202200   -0.82184400
Se   15.69351000   15.66043000   15.89285000     -0.094469    0.84934200    0.32590300
Se   16.14831000   21.88384000    6.13532000      1.238028   -0.27885300   -0.03839800
Se   15.76217000   22.33127000   15.58588000      0.776469   -0.72451600    0.32826500
Se   21.84725000    4.58816000    5.87603000     -0.936824   -0.28395000    0.45625400
Se   21.98405000    4.47695000   16.03945000     -0.239192   -0.55710600   -0.68272900
Se   21.81603000   10.01282000    5.97533000      0.205147    0.03053200   -0.24576400
Se   21.68928000   10.25692000   16.10052000      0.528901    0.04648000   -0.29825100
Se   21.45445000   16.19680000    5.68071000      0.248093   -0.76695100    0.38652400
Se   21.42138000   15.79078000   15.63029000     -0.537958    0.76079500    0.57074900
Se   21.84460000   21.81139000    5.98515000     -0.617862    0.38528800    0.13404700
Se   21.71831000   21.64497000   15.80821000     -0.543451    0.08361000   -0.13710200
Se    4.63277000    1.22129000    3.61920000     -0.492272    1.51997500    0.23629100
Se    4.17424000    1.45761000   13.29704000      0.369263    1.07245400   -0.30383300
Se    4.52145000    7.07208000    3.54846000     -0.230658    1.36506500    0.74964900
Se    4.53952000    7.24408000   13.66623000     -0.569103   -0.32707100    0.11276900
Se    4.20970000   13.01967000    3.53814000      0.272590    0.08614700   -0.02807700
Se    4.15579000   12.91814000   13.51118000      0.326007    0.30971600   -0.51939800
Se    4.23718000   18.93191000    3.76734000     -0.513972   -0.84174800    0.35171600
Se    4.53969000   18.72167000   12.97549000     -2.059557   -0.82015500    1.90992600
Se   10.25698000    1.31684000    4.04079000      0.328874    0.97650000   -0.48059300
Se    9.79615000    1.61961000   12.94061000      0.618992    0.49436200    0.45856400
Se   10.52923000    7.29453000    3.55932000     -0.069875   -0.16216400   -0.06033700
Se   10.46575000    7.32507000   13.35981000     -0.594645    0.12457000    0.55636800
Se   10.37225000   13.06901000    3.78438000      0.606508    1.02197600   -0.52060900
Se    9.88832000   12.80287000   13.37844000      0.673223    0.26424800   -0.34581900
Se   10.34723000   18.94183000    4.11004000      0.568333    0.35475800   -0.42118700
Se   10.04561000   18.53551000   13.67982000      0.628606    0.91465800   -1.18284000
Se   15.93977000    1.18774000    3.60178000     -0.055848    0.33257800   -0.00632700
Se   15.78170000    1.28389000   13.20576000     -0.203422    0.00110200    0.01424600
Se   15.98643000    7.28499000    3.47917000      0.937926   -0.45915300   -0.93330500
Se   16.10725000    7.03478000   13.59956000      0.619389   -0.41851100   -0.50124800
Se   15.61170000   13.72209000    3.14387000     -0.468706   -1.37787500    0.57257400
Se   15.84079000   12.73580000   13.19024000     -0.345710   -0.38106900    0.64041200
Se   15.86183000   18.91566000    3.37622000     -0.467660   -0.05587200    0.48736100
Se   15.32286000   18.83374000   13.40545000      0.875248   -0.20359600   -0.54358700
Se   21.68517000    1.54083000    3.69011000     -0.300527   -0.32649400    0.04296000
Se   22.09177000    1.67730000   13.47398000      0.439397   -0.39060400   -0.44835900
Se   21.78217000    7.06112000    3.56793000      0.256373   -0.23170000    0.24484700
Se   22.06138000    7.23559000   14.05359000      1.474725   -0.66784700   -1.60555100
Se   21.40899000   13.05910000    3.43643000      0.509220   -0.95550500   -0.66871400
Se   21.44507000   13.10871000   13.29693000     -0.013582   -0.88314900    0.11902600
Se   22.01524000   18.73982000    3.82674000     -0.337814    0.83360500   -0.33611300
Se   21.78728000   18.87620000   13.78645000      0.027719    0.69757900   -0.55022900
Se    1.31974000    4.47480000    3.84993000      0.043837   -0.46833400   -0.38964500
Se    1.35746000    4.68897000   13.87320000      1.147202   -0.23121300    0.10763400
Se    1.87361000    9.82794000    3.33943000      0.014113    0.67751000    0.47148300
Se    1.62884000   10.38133000   13.44016000      0.246618   -0.57459700    0.49294100
Se    1.01059000   15.84081000    3.89965000      0.884697   -0.32000000    0.26594400
Se    1.11307000   16.03253000   13.99658000      0.574121   -0.82517400   -0.54703500
Se    1.47312000   22.08514000    3.53392000     -0.662887   -0.50282500   -0.41664500
Se    1.43844000   21.85397000   13.75213000      0.398992    0.18713100    0.02922500
Se    7.27436000    4.48199000    3.86036000      0.183278   -1.28721000   -0.27386900
Se    7.33059000    4.66823000   13.01670000     -0.577984   -0.47968100    0.28893300
Se    7.56130000   10.15994000    3.58130000     -0.467764    0.26909200   -0.22454200
Se    7.59233000    9.98031000   13.21085000     -0.038864    0.56487300    0.13880600
Se    7.37475000   15.95944000    3.53476000     -0.622994   -0.09539800   -0.06956400
Se    7.17195000   15.79755000   13.35664000     -0.440960    0.01805900   -0.18613100
Se    7.63711000   21.58158000    3.49086000     -0.959289   -0.57628100    0.11923700
Se    7.56773000   21.68476000   13.01735000     -0.365957    0.01254100    0.21939300
Se   13.33643000    4.21671000    3.51837000      1.179541    0.81618600    1.14503800
Se   12.98729000    4.51600000   13.84263000     -1.316488    0.35001600   -1.68442600
Se   13.24837000   10.40644000    3.36111000      0.689479    0.15721500    0.75399100
Se   13.55479000   10.09964000   13.07669000     -0.595883   -0.35499500    0.27173600
Se   13.19950000   16.41134000    3.66395000      0.466745    0.47442600    0.94605900
Se   13.00791000   15.84254000   13.25891000      0.014576   -0.51652800   -0.04533600
Se   13.26786000   21.99358000    4.08269000     -0.356867   -0.19516800   -0.24648600
Se   12.69962000   21.78046000   13.42699000     -0.591564    0.06854300   -0.85599700
Se   18.61107000    4.44510000    3.45532000      0.384441   -0.48658300    0.54477100
Se   18.60833000    4.17231000   14.09715000      0.022090   -0.18260200   -0.83409800
Se   18.99057000    9.91197000    3.22173000      0.151704    0.30342300    0.49726300
Se   19.12929000    9.77646000   13.34822000      0.457318    0.59688700    0.55340500
Se   18.72156000   15.92421000    3.95118000     -0.305593   -0.24168900   -0.79880800
Se   18.57093000   15.78904000   13.56121000     -0.547494    0.12785500   -0.52552300
Se   18.70795000   21.76914000    3.58862000      0.374889   -0.15833400   -0.02582000
Se   18.35801000   21.44129000   13.25349000      0.782443    0.81795100    0.59628900
