384
23.23808000 23.23808000 19.51320000
Ge    5.85321000    5.71506000    9.42623000     -0.356998    0.12357700    0.57547000
Ge    5.87846000    5.68174000    0.08806000     -0.042111   -0.86273800   -1.03260100
Ge    5.64582000   11.74530000    9.90104000      0.552357   -1.45341200   -1.17343600
Ge    6.23683000   11.68529000   19.49363000     -0.442485    0.37697000    0.19087900
Ge    5.80390000   17.42888000    9.81884000     -1.035470   -2.10527600   -1.02023300
Ge    5.76720000   17.24342000    0.02016000      0.635909   -0.41978100    0.24113900
Ge    5.60559000    0.21552000    9.92752000      0.117242   -1.19289200   -0.39776000
Ge    5.84459000   22.92106000    0.11394000     -0.784947    1.32112100    0.51062600
Ge   11.34206000    6.02216000    9.35115000      3.667249   -0.47531200    1.14160300
Ge   11.64888000    5.68819000    0.04842000      0.160998   -0.65453100   -0.10750700
Ge   11.58817000   11.64730000    9.57233000     -0.022145    0.48906700    0.07320400
Ge   11.53721000   11.85745000    0.01568000      0.763420    0.76537800    0.28907100
Ge   11.63954000   17.34796000    9.70369000     -0.036607   -0.49508100   -0.16298800
Ge   11.27529000   17.67988000    0.03725000     -0.338469   -0.21676400    0.36099600
Ge   11.72523000    0.11573000    9.79946000     -0.557263   -0.02833000   -0.49391100
Ge   11.60890000    0.18255000   19.51251000     -0.090011   -1.12061400    0.62230100
Ge   17.44596000    5.59094000    9.70932000     -0.828016   -0.59717300   -0.63565300
Ge   17.47814000    5.43407000   19.39088000     -0.267781    1.66692000   -0.20960900
Ge   17.83844000   11.48458000    9.79414000     -0.887681   -0.18159800   -0.40250300
Ge   17.02481000   11.56804000   19.38667000     -0.294968    0.62312300    0.37930600
Ge   17.43998000   17.01380000    9.79801000      0.733547    0.41475900    0.98891900
Ge   17.64289000   17.57145000   19.16719000     -0.131585   -0.25523300    0.72144000
Ge   17.87915000    0.05386000   10.17216000      0.698880   -0.67587200   -0.66664300
Ge   17.50149000    0.08186000   19.40534000     -1.081334   -0.08535100    0.37118500
Ge   23.04567000    5.99718000    9.91413000     -0.423367    0.54307100    0.47295600
Ge   22.91058000    6.00899000   19.43208000      0.900182   -0.39947100    0.74181300
Ge   23.02116000   11.54758000    9.80852000      0.584938    0.68359000   -0.87677700
Ge    0.14591000   11.46119000   19.51052000     -1.208846    0.86337400   -0.02720400
Ge   23.11843000   17.83193000    9.94767000     -0.878300   -1.04500600   -0.23299800
Ge    0.11963000   17.56036000   19.38172000     -1.060556    0.91831600   -0.24709300
Ge   22.94665000    0.23853000    9.97705000     -0.853190    0.42279300   -0.29014100
Ge    0.11243000    0.05643000    0.25315000      0.320846   -0.02691500   -0.78842100
Ge    3.08784000    5.90796000    7.35052000     -0.448996    0.31055900   -0.06247400
Ge    2.78309000    5.89765000   17.33109000      0.488051   -0.93492000   -1.50756900
Ge    2.71504000   11.58127000    7.39824000     -1.427335   -0.60760400    1.03019100
Ge    3.24070000   11.59488000   17.23294000     -0.112762    0.09124900   -0.28470600
Ge    2.68496000   17.37478000    7.42572000     -0.138587   -0.25972300   -0.59219200
Ge    3.29498000   17.38070000   17.20601000     -0.379869    0.34910300    0.39054500
Ge    2.68288000    0.10662000    7.54500000      0.150066   -1.44858200   -0.97676000
Ge    3.00043000   23.08308000   16.93784000     -0.256887   -0.16579100    1.09485000
Ge    8.60451000    5.70126000    7.34416000      1.408087    2.54881300   -1.23709100
Ge    8.56428000    5.78298000   16.89548000      0.898188   -0.71724000    1.28754700
Ge    8.84051000   11.69712000    7.23268000     -0.593232   -0.46369500   -0.15056600
Ge    8.68220000   11.50296000   17.05211000      1.337718   -0.28607700    0.97293200
Ge    8.52041000   17.27171000    7.24686000      0.159850    0.23000600    0.15415600
Ge    8.41835000   17.31937000   16.94648000     -0.032191   -0.63167200    0.89273800
Ge    8.68674000   23.18759000    7.58280000      0.368453   -0.61397800   -0.56580900
Ge    8.49873000    0.06346000   17.08490000      0.701068   -0.81076300   -0.29849500
Ge   14.70980000    5.66013000    7.06713000     -1.623520   -0.27514700   -0.11602300
Ge   14.46964000    5.95539000   17.20511000      0.622327    0.07968400   -0.56603700
Ge   14.79372000   11.67019000    7.37147000     -0.961983    0.16635100    0.10709800
Ge   14.43498000   11.90872000   16.84406000      0.360857   -0.07491200    0.30044400
Ge   14.77652000   17.21648000    7.45090000     -0.042748    0.81845200    0.22813300
Ge   14.15969000   17.63778000   16.98134000      1.113227   -0.05960200   -0.86047300
Ge   15.06834000    0.28468000    7.49840000     -3.106476    0.05968600    0.45460300
Ge   14.27585000    0.37290000   16.93433000      0.827066   -0.33847200    0.46270100
Ge   20.30021000    5.80926000    7.33302000     -0.572168   -0.72095300   -0.40314200
Ge   20.38310000    5.72770000   17.17372000     -1.225883    0.54235000    0.26265800
Ge   20.62708000   11.54692000    7.31856000     -1.541053   -0.06964600    0.00905300
Ge   20.15827000   11.56866000   17.28956000     -0.006161    0.88311800    0.13457700
Ge   20.09566000   17.53891000    7.07652000      0.623807   -1.51845200    0.55579000
Ge   20.17539000   17.75932000   17.06364000      1.305498   -0.16992900   -1.79253100
Ge   20.26471000    0.14703000    7.19520000      0.841185   -0.95118500   -0.07538400
Ge   20.64829000   23.23359000   17.19327000     -0.679024   -0.30042100    0.18928400
Ge    3.01101000    2.85467000    4.75584000     -0.708565   -0.73304500    0.19248200
Ge    3.09887000    3.02057000   14.77049000     -0.942423    0.32864000    0.13780200
Ge    3.03677000    8.60510000    5.10674000      0.909806   -0.12925700   -0.86346700
Ge    2.94897000    8.66260000   14.68622000      1.144164    1.30330500    0.24964900
Ge    2.78372000   14.23862000    4.90678000     -0.939890    1.02656700   -0.07608800
Ge    3.01098000   14.66896000   14.83583000     -0.970475   -0.98859900   -0.66799400
Ge    2.53417000   20.53667000    4.80221000      1.065218   -1.21395800    1.13230600
Ge    3.32864000   20.30334000   14.46095000     -1.235871   -0.44616000    0.57838000
Ge    8.72454000    2.89113000    5.11344000     -0.417565   -1.35794100   -0.43066000
Ge    8.57142000    3.12931000   14.48001000      0.012438   -0.88490900   -0.78428300
Ge    8.95190000    8.55189000    4.74752000     -0.366634    0.50447100    0.41674400
Ge    8.67928000    8.67901000   14.72411000      2.292505    0.43502100   -1.17436300
Ge    8.70880000   14.52587000    4.80797000      0.254774   -1.23832900   -1.14817700
Ge    8.46727000   14.28399000   14.61225000      1.082390    0.99142500   -0.13696200
Ge    8.51387000   20.11932000    5.10762000      1.192049    0.59011100   -0.55028100
Ge    8.73230000   20.21963000   14.56377000     -0.049663   -0.50559700    0.32895900
Ge   14.70201000    2.70718000    4.87598000     -0.490975    0.17497900    0.39447500
Ge   14.54272000    2.77547000   14.49108000     -1.063046    1.46524800    0.58880700
Ge   14.85858000    8.98465000    4.56980000     -0.741099    0.13094900    1.29172900
Ge   14.39040000    8.48922000   14.60922000      1.813270    1.72394000   -1.30457700
Ge   14.76477000   14.89338000    5.03182000     -0.620424   -0.21039400   -0.14062600
Ge   14.45991000   14.34185000   14.43844000     -0.452426    0.33039800   -0.32750200
Ge   14.67912000   20.34281000    5.04869000      0.076789   -0.03619600   -0.39167900
Ge   14.38266000   20.71512000   14.42624000      1.378935   -1.54131600    1.19668200
Ge   20.35746000    3.07603000    4.75964000     -1.892045   -0.08212000   -0.30837900
Ge   20.54028000    2.86161000   14.74013000     -0.134981    0.93022900    1.26849400
Ge   20.36959000    8.53809000    4.76127000     -0.734045    0.69650900   -0.08565100
Ge   20.50666000    8.53629000   15.00151000     -0.631637    0.77610100   -0.77384000
Ge   20.13221000   14.19584000    4.91045000     -0.884985    2.27038400    0.01537600
Ge   19.84237000   14.21842000   14.79725000      0.811060    1.13275300   -0.25122600
Ge   20.38322000   20.35214000    4.72853000      0.130767    0.11160400    0.17826400
Ge   20.07798000   20.29069000   14.64515000     -1.130571    0.38504000    0.08079500
Ge    6.08729000    2.84970000    2.41584000     -0.000921   -0.51550300    0.52107500
Ge    5.48073000    3.14272000   11.96727000      0.066919   -0.12701600    0.84234700
Ge    5.89831000    8.90578000    2.43206000     -0.423824   -1.38066900   -0.20306500
Ge    5.98471000    8.43411000   12.27013000     -0.582834    1.26803100   -0.71121700
Ge    5.78584000   14.52351000    2.27731000      0.471405   -1.21018700    0.09331100
Ge    5.49423000   14.40527000   12.12307000     -0.205491    0.25471600   -0.06258600
Ge    5.94539000   20.02068000    2.56974000      0.428531    0.55482600    0.06406100
Ge    5.99748000   20.06785000   12.03252000     -0.432886    2.00979800    0.45995600
Ge   11.65140000    2.88457000    2.70532000     -1.518940   -0.85469900    0.29440800
Ge   11.59073000    3.16748000   12.07661000      0.080620   -0.21547400    0.47636700
Ge   11.92736000    8.83681000    2.36849000     -0.430120   -0.34531800   -1.04794300
Ge   11.71524000    8.89985000   12.09829000     -0.160511   -0.23147200   -1.17473100
Ge   11.74425000   14.90588000    2.65081000     -1.398388   -1.90269600   -1.02774000
Ge   11.59565000   14.20206000   12.25182000     -0.800280    0.19697700   -0.39937900
Ge   11.72315000   20.60712000    2.76071000     -0.166922   -1.24352700   -0.04227400
Ge   11.46028000   20.05695000   12.10533000      0.581108   -0.11884700    0.06267800
Ge   17.02940000    2.86680000    2.34699000      1.382419   -0.07706900    0.50497000
Ge   17.55716000    2.76146000   12.38285000      0.101683   -0.24415100    0.03367500
Ge   17.48045000    8.65209000    2.01465000     -1.450962   -1.06079300    0.17748300
Ge   17.55711000    8.45090000   12.19111000     -0.286055   -0.90596700   -0.18472400
Ge   17.35001000   14.81798000    2.16830000      2.090051   -0.45306700    0.26567200
Ge   17.32007000   14.20565000   12.18509000      0.341371    1.30070500    0.06917700
Ge   17.24963000   20.38007000    2.26748000     -0.113354    0.56038000   -0.23871500
Ge   17.06698000   20.03542000   11.99387000     -2.179340    0.34405700    0.42401600
Ge   23.07683000    3.02770000    2.37708000      1.204654    0.46074000    0.13205100
Ge    0.09959000    3.46979000   12.34020000      0.242453   -0.97887100   -0.03162800
Ge    0.15644000    8.55256000    2.52848000      0.753582   -0.39444200   -0.97835400
Ge    0.04656000    8.89489000   12.49650000     -0.349603    0.11887000   -0.07079100
Ge   23.05735000   14.54987000    2.35965000     -0.317695   -0.80263600   -0.31698800
Ge   22.95407000   14.72145000   12.41218000      0.094795    0.72594500   -0.39824900
Ge    0.10009000   20.30496000    2.51473000     -0.082126    0.78396000   -0.03801100
Ge   22.94385000   20.63098000   12.59986000      0.090155   -0.37201300   -0.77040500
Se    1.65551000    1.46471000    1.62148000     -1.087892    0.12992900   -0.50756000
Se    1.19009000    1.99901000   10.68339000      0.069407    0.08436700    0.60918400
Se    1.45443000    6.87497000    1.22235000     -0.638144    0.49794100    0.37002600
Se    1.32725000    7.31000000   11.26428000      0.214292   -0.20900100   -0.39968200
Se    1.40023000   13.07314000    1.24554000     -0.097925   -0.10670800    0.32691400
Se    1.01553000   13.23954000   10.92496000      0.623345    0.47482600    0.68047100
Se    1.53600000   18.95442000    1.20115000      0.199733   -0.08413500    0.05406900
Se    1.24130000   19.36275000   11.09532000     -0.098106    0.29834000    0.22228500
Se    7.42409000    1.16093000    1.26711000     -0.172839    0.33405800    0.14860300
Se    7.09172000    1.72104000   11.01545000      0.299593   -0.36620900   -0.44884500
Se    7.23086000    7.10510000    1.24820000      0.635807    0.94878500    0.62906600
Se    7.23932000    6.97226000   10.87850000      0.547421    0.32096200    0.11067700
Se    7.74823000   13.08671000    1.30945000     -1.747770    0.07350000   -0.11219200
Se    7.04922000   13.33408000   10.70559000      1.121982    0.28780700    0.47479000
Se    7.38200000   18.69961000    1.11205000     -0.395605   -0.04055200    0.56366400
Se    7.37934000   18.59180000   11.01858000      1.354874   -0.40772600   -0.50250800
Se   12.95712000    1.60809000    1.29407000      1.049870   -0.55733900   -0.71589100
Se   13.08853000    1.84331000   10.70282000     -0.075813    0.08226500    0.58060200
Se   13.29534000    7.00043000    1.17538000     -0.571668    0.85635100    0.26655700
Se   13.15232000    7.67868000   10.48410000     -1.470041   -0.60030500    0.37236000
Se   12.99802000   13.57829000    1.04873000     -0.292761   -0.66051100   -0.15386200
Se   13.19344000   12.77618000   11.02140000     -0.844881    0.46581300   -0.12220900
Se   12.86494000   18.93498000    1.21962000      0.332316    0.96330800    0.59588200
Se   13.16376000   18.90795000   10.57611000     -0.694234    0.64457600    0.88231400
Se   18.75959000    1.58308000    1.25975000     -0.099367   -0.03146600   -0.01015300
Se   19.39321000    1.26785000   11.60944000     -0.888495    0.46842800   -0.07410300
Se   18.88690000    6.93007000    1.11898000     -0.030882   -0.03825300   -0.00550300
Se   18.93026000    7.12215000   10.52643000      0.479896    0.58823300    1.37369500
Se   18.68898000   12.78808000    1.15448000     -1.051426    1.26630800    0.37380000
Se   19.04721000   13.17296000   10.92814000      0.245298   -0.25653500    0.17898900
Se   18.88718000   19.01245000    1.17063000     -0.016038   -0.05516600   -0.41221100
Se   18.64081000   18.65047000   11.27534000      1.459106   -1.60705900   -1.02972000
Se    4.54289000    3.99007000    0.99401000     -0.481356   -0.24200600    0.68256300
Se    4.10806000    4.53248000   10.51820000     -0.022828   -0.43445500    0.49025200
Se    4.53140000   10.28754000    1.04068000      0.124881    0.13434200    0.28668700
Se    4.52453000   10.36694000   11.41017000     -0.189845   -1.05866000    0.18159800
Se    4.11801000   15.81463000    1.15692000      0.679243    0.35479400   -0.10433200
Se    4.08412000   15.79105000   10.69724000      0.761529    0.51282300    0.64822600
Se    4.48582000   21.54573000    1.48460000     -0.541422    0.18307200   -0.21239800
Se    4.47190000   21.92221000   11.57731000     -0.125376    0.27169500   -1.10012900
Se   10.22966000    4.34781000    1.51158000     -0.508386    0.21929000   -0.29097500
Se   10.23373000    4.77388000   10.92037000     -1.076988   -0.58706800    0.68959800
Se   10.21029000   10.27869000    1.18997000      0.709882   -0.63477600    0.32204000
Se   10.04277000   10.40286000   10.88592000      0.520869   -0.49908800    0.26607300
Se   10.02674000   16.23053000    1.52849000      0.215253   -0.15127100   -0.28308400
Se   10.18971000   16.21822000   11.26592000      0.588049   -1.03983400   -0.12383900
Se   10.26137000   21.89155000    1.42117000     -0.099642    0.41634000   -0.42397500
Se   10.15680000   21.81772000   11.00156000      0.180140    0.29563100   -0.20702300
Se   15.76464000    4.10869000    0.75364000     -0.679280   -0.08049100    0.67509300
Se   16.06564000    4.17072000   11.10832000      0.365554    0.20704100   -0.12519900
Se   15.61461000    9.80370000    0.80221000      0.976260    0.30085000    0.11537800
Se   16.32745000    9.76131000   10.63801000     -0.209297    0.76331300    0.23890700
Se   16.08036000   16.31626000    0.88495000     -0.539980    0.17369300   -0.04003100
Se   15.88150000   15.64089000   10.86037000     -0.113042   -0.19779900    0.34162600
Se   15.70589000   22.02208000    1.21576000      1.466898   -0.26560900   -0.42491500
Se   16.04342000   21.92643000   10.71615000     -0.134014   -0.83947300    0.65875500
Se   21.51417000    4.34322000    1.00035000      0.367484   -0.23102800    0.24720100
Se   21.56635000    4.63203000   11.37122000      0.037571    0.69055600   -0.82946000
Se   21.99450000    9.73251000    1.00047000      0.266426    0.72783500    0.28520300
Se   21.68397000   10.07690000   10.95587000     -0.713087   -0.83514300    1.19974300
Se   21.85098000   15.94897000    0.84068000     -0.510362    0.19449800    0.14792500
Se   21.56578000   16.58155000   11.48830000      0.873458   -0.42707000   -0.57579900
Se   21.82836000   21.72801000    1.29200000     -0.054323    0.12330900   -0.13000300
Se   21.35766000   21.98469000   11.20101000      0.908832   -0.03234100    0.18268500
Se    1.38443000    4.74973000    8.62367000      0.160196   -0.94030700    0.03011100
Se    1.07642000    4.56576000   18.11428000     -0.093986   -1.14127300    0.29974500
Se    1.17376000    9.93896000    8.65005000      0.299344    1.43935600   -0.19646600
Se    1.66692000   10.11149000   18.39193000      0.591833   -0.13414200   -0.33184600
Se    1.23261000   16.08676000    8.87877000      0.042816    0.21649800   -0.01288500
Se    1.73300000   16.07575000   18.74068000      1.261250   -0.51755000   -1.27232300
Se    1.23717000   21.97436000    9.03215000      0.712286   -0.09378700   -0.64334200
Se    1.09694000   21.84578000   17.92639000      0.452913    0.36340900    0.55023100
Se    7.45793000    4.21550000    8.56057000     -0.707235   -1.29469300    0.67528900
Se    7.32243000    4.19619000   18.24126000     -0.242027    1.11319400    0.04497400
Se    7.23291000   10.30066000    8.56860000      0.001984    0.58613800    0.00324000
Se    7.51850000    9.88212000   18.55644000      0.108436    1.18663600   -0.79981700
Se    7.24259000   15.77470000    8.58195000     -0.380093    0.64341000    0.18628300
Se    7.18954000   15.68368000   18.28560000      0.035298    0.61086000    0.02726500
Se    6.94319000   21.75097000    8.67234000      0.230433    1.03570200    0.22573100
Se    7.38351000   21.52357000   18.69605000      1.054709    0.17454100   -1.45386500
Se   12.94105000    4.32025000    8.52905000      0.389403    1.07525400   -0.76330300
Se   13.25101000    4.18705000   18.36270000     -0.470769    0.91461900   -0.02550300
Se   12.92728000   10.14112000    8.32944000      1.093787    0.43387000   -0.50082800
Se   13.20625000   10.56180000   18.38858000     -0.044332   -0.54560400    0.06419900
Se   13.11260000   15.84214000    8.44834000     -0.572713   -0.12888600    0.35125600
Se   12.93038000   16.37066000   18.43715000     -0.410119   -1.23585200    0.36019400
Se   13.35779000   22.01906000    8.70305000      0.318282    0.25295800   -0.34278100
Se   13.04207000   22.04386000   18.20292000      0.127295   -0.32717400    0.29068300
Se   18.77815000    4.08867000    8.34061000      0.401575    0.83575100    0.00687200
Se   18.97993000    4.03748000   18.33368000      0.795299    0.18277800   -0.50573400
Se   19.28189000    9.98255000    8.57089000     -0.106036    0.54987900    0.05930400
Se   19.16193000   10.42569000   19.08150000     -0.248876   -1.20769100   -0.54147000
Se   19.15109000   15.94871000    8.59387000     -0.023481   -0.54712700   -0.19847200
Se   19.23472000   16.04857000   18.22043000     -0.766423   -0.42796400    0.79603900
Se   19.17372000   21.85615000    8.62051000     -0.413990   -0.00586200    0.48860500
Se   19.12830000   21.83549000   18.61617000      0.587626   -0.21165000   -0.55594100
Se    4.31061000    1.54817000    8.36620000      0.274471    0.27812000    0.73402300
Se    4.35645000    1.22683000   18.38766000      0.318727   -0.73406200    0.17829600
Se    4.81294000    7.39847000    8.14492000     -0.279266   -0.17354900    0.07868500
Se    4.18571000    7.06726000   18.63700000      1.156032    1.45840500    0.70937000
Se    3.97761000   13.01580000    8.80890000     -0.279795    0.49623900   -0.30269200
Se    4.60998000   13.29019000   18.23284000      0.521838   -1.31753000    0.48933000
Se    4.28449000   18.76428000    8.53518000      0.302358    0.64662000    0.08767500
Se    4.85833000   18.95488000   18.26734000     -1.097653   -0.26407700   -0.36482500
Se   10.32824000    1.60704000    8.28196000     -0.105556   -1.03501100    0.87353000
Se   10.10014000    1.47486000   18.32564000     -0.762490    0.50042700   -0.69322700
Se   10.16640000    7.57486000    8.30446000     -1.649782   -0.01814000   -1.06961900
Se   10.28239000    7.07883000   18.14536000     -0.169640    0.06916400    0.10032600
Se   10.27887000   13.31594000    8.21669000      0.237913   -0.62151600    0.54341900
Se   10.19230000   13.23343000   18.15011000     -0.734077   -0.59115900   -0.39120000
Se   10.22139000   18.67668000    8.31110000     -0.381823    0.31719100   -0.08586200
Se    9.68091000   18.86778000   18.22076000      0.399201    0.42850600    0.02287200
Se   16.45787000    1.49790000    8.90999000      0.094128    1.32919500   -0.01730800
Se   16.41707000    1.51340000   17.74576000     -0.844330   -0.24405400    0.11967100
Se   15.93721000    7.06981000    8.41129000      0.662966    0.22998400    0.64343600
Se   16.42054000    7.30628000   18.11509000     -0.902153   -1.56012700   -0.10573200
Se   16.13526000   13.04607000    8.84681000      0.222280   -1.14304700   -0.24709000
Se   15.92465000   13.44195000   18.16270000     -0.134212   -1.24321700   -0.25145900
Se   16.10329000   18.64085000    8.90898000     -0.764527    0.78520400   -0.84600600
Se   16.12883000   18.81250000   17.80749000     -0.315101    0.51434400   -0.03985700
Se   21.62881000    1.63381000    8.35558000      0.716939   -0.03420400    0.75275800
Se   21.91883000    1.55819000   18.44721000      0.321237   -0.19645300    0.43742800
Se   21.65078000    7.41595000    8.46346000      0.315703   -0.22157800    0.34092900
Se   21.69977000    7.50134000   18.14857000     -0.502301    0.17175700    0.04593300
Se   21.75783000   13.22006000    8.43047000      0.720606   -0.50563200    0.55709000
Se   21.68149000   13.02196000   18.47668000      0.674873   -0.37070400   -0.14459500
Se   21.74948000   18.80859000    8.12160000      0.731691    1.00260000    0.90862800
Se   22.25213000   18.95584000   17.47702000     -0.092775   -0.51410400    1.14927900
Se    1.36109000    1.35554000    6.01099000      0.517683    0.63091600   -0.20810300
Se    1.68965000    1.59786000   16.14015000     -0.320107    0.51254200   -0.57837800
Se    1.51727000    7.50756000    6.47802000     -0.399930   -0.58407700   -0.26698600
Se    1.48755000    7.33628000   15.93272000     -0.420949   -0.07794700    0.26406300
Se    1.21117000   12.77060000    6.01348000      0.249580    0.30046800   -0.13341900
Se    1.64883000   12.91177000   15.99765000      0.459722    0.58927600    0.02769100
Se    1.13810000   18.95714000    6.25016000      0.945746   -0.17198900   -0.22071200
Se    1.83847000   18.71204000   15.86459000      0.340386    0.61558400   -0.45828300
Se    7.25755000    1.14265000    6.07113000      0.131290    0.61607600   -0.04220000
Se    7.15206000    1.59400000   15.65571000     -0.345982   -0.46052600    0.43116300
Se    7.30019000    7.20630000    5.84602000      0.213204   -0.41077600    0.22161900
Se    7.18509000    7.35522000   15.84396000     -1.144234   -0.46055100    0.32100500
Se    7.40167000   12.75309000    5.60673000     -0.665570   -0.11263300    0.70913100
Se    7.21398000   12.71165000   15.68531000     -1.657316   -0.63310800    0.42024900
Se    6.90648000   18.58579000    5.90445000      0.407431   -0.23162200    0.45065200
Se    7.04977000   18.75625000   15.78534000     -0.050785    1.15465700   -0.90302100
Se   13.17704000    1.58683000    6.31559000      1.144905   -0.47563600    0.49378700
Se   12.78616000    1.54942000   15.61472000     -0.121321    0.45424200   -0.10872100
Se   13.37237000    7.37852000    5.75067000      0.367149   -0.14899100    0.43441700
Se   12.92985000    7.53366000   15.97039000     -1.113849   -1.63276800    1.52060500
Se   13.34091000   13.42325000    6.45909000      0.424527   -0.17120500   -0.78741800
Se   12.80968000   13.25495000   15.72098000      0.006085   -0.57023200    0.05300200
Se   13.35648000   18.81871000    6.27820000     -0.038358   -0.35721600    0.15803300
Se   12.94024000   19.32006000   15.86058000      0.128064   -0.26844700    0.30818600
Se   18.85307000    1.48900000    5.92814000     -0.202090    0.45376800   -0.59341300
Se   19.13324000    1.55656000   16.14083000      0.358146   -0.56956700   -0.29667400
Se   18.80210000    7.15158000    5.94855000      0.247808    0.11531500    0.17502000
Se   18.85212000    7.23867000   15.96380000     -0.134267   -0.46852600    0.45296500
Se   18.86070000   12.83840000    6.27781000     -0.349758   -0.38614200    0.05476200
Se   18.42256000   12.89827000   16.21301000      0.550219   -0.10710700   -0.21824700
Se   18.79439000   19.08848000    6.06697000     -1.026161    0.88553700   -0.70133600
Se   18.45234000   19.08299000   15.96536000      0.932973   -0.06618300    0.00622000
Se    4.39913000    4.23317000    6.23356000     -0.190358    0.07799700   -0.25704200
Se    4.45576000    4.52007000   16.02994000     -0.290760    0.12259500    0.30569700
Se    4.27173000   10.11330000    6.60032000      1.237539   -0.65847300   -1.23537800
Se    4.63177000    9.97443000   16.09034000     -0.732993   -0.18661200   -0.39475400
Se    4.17532000   15.68274000    6.14464000     -0.485617    0.73566200    0.58115800
Se    4.69807000   15.95778000   15.88151000     -0.013204   -0.03637500    0.09418900
Se    4.18364000   21.53917000    6.15698000     -0.670698    1.03383700    0.88648700
Se    4.64649000   21.70141000   15.91353000      0.055234   -0.10263500   -0.40284400
Se   10.18943000    4.30921000    6.22840000      0.510625    0.35625100    0.35651300
Se   10.07352000    4.24052000   15.88139000      0.313007    0.58803100   -0.23424000
Se   10.25916000   10.01980000    6.13236000     -0.000679    0.28847300    0.09992400
Se   10.27266000   10.04243000   15.95144000     -0.489618   -0.06636100   -0.10577200
Se   10.07377000   15.78492000    6.12939000      0.334689    0.95875100    0.42302400
Se    9.89110000   15.91929000   15.78624000      0.375932   -0.57115000   -0.47122600
Se   10.11973000   21.49605000    6.31731000     -1.030850    0.45919900    0.61953600
Se   10.10640000   21.85155000   15.60606000     -0.653154    0.66660600    0.91685800
Se   16.23987000    4.22943000    5.91844000     -0.223107   -0.04365100    0.02400400
Se   15.90302000    4.34720000   15.78156000     -0.517654    0.27962900    0.33324100
Se   16.23969000   10.58164000    5.82041000      0.087377   -0.42431900   -0.30624600
Se   15.82435000   10.16637000   15.76528000     -0.067902    0.26783700    0.25790700
Se   16.46236000   15.83668000    6.54293000     -0.350057    0.14463900   -0.82540100
Se   15.68581000   15.71216000   15.84548000      0.159692    1.22519000    0.75321100
Se   16.11129000   21.95144000    6.25980000      1.420056   -1.33640700   -0.89730100
Se   15.72249000   22.35373000   15.52935000      0.551762   -0.91596900    0.14149300
Se   21.78427000    4.48040000    5.89373000      0.458429    0.62818700    0.84567600
Se   21.99410000    4.50675000   16.09301000     -0.268298   -1.07472000   -1.21860900
Se   21.84189000   10.13212000    5.95117000      0.627335   -0.76157300   -0.91478800
Se   21.68506000   10.34228000   16.01929000      0.393755   -0.17210000   -0.27191800
Se   21.46721000   16.06187000    5.76685000      0.339056   -0.25916700    0.29418700
Se   21.48246000   15.82568000   15.62936000     -0.929445    0.66985100    0.66461000
Se   21.83476000   21.77100000    6.06985000     -0.749642    0.41704500   -0.15828100
Se   21.74354000   21.69024000   15.66054000     -0.182466    0.32843800    0.31238100
Se    4.66294000    1.23654000    3.63114000     -0.507865    1.29778800    0.25013900
Se    4.08764000    1.44573000   13.30829000      0.628128    1.02000300   -0.45101600
Se    4.49806000    7.16819000    3.55049000     -0.025258    0.91754900    0.65325200
Se    4.54585000    7.17544000   13.63491000     -0.343877   -0.42450000   -0.00968500
Se    4.22042000   13.05693000    3.52541000      0.672122   -0.74179800   -0.46503300
Se    4.18406000   12.91425000   13.44973000     -0.169117    0.79779300    0.20767300
Se    4.23201000   18.91243000    3.83619000     -0.230952   -0.03476300    0.03143300
Se    4.48644000   18.68582000   13.08791000     -0.766117   -0.26939600    0.70213300
Se   10.39582000    1.32196000    4.15277000     -0.170958    0.99612400   -0.42913900
Se    9.88110000    1.62717000   13.03366000      0.543417    0.54356100    0.11072600
Se   10.55010000    7.31128000    3.58261000      0.078562   -0.51265800   -0.11773100
Se   10.44418000    7.32601000   13.39981000     -0.555337    0.26113000    0.40443200
Se   10.44140000   13.06702000    3.73477000     -0.117165    1.44943900   -0.11126700
Se    9.85783000   12.78442000   13.50864000      1.132834    0.28877400   -0.77876200
Se   10.36171000   18.93852000    4.04550000      0.273693    0.23378800   -0.33759300
Se   10.16396000   18.50642000   13.69750000      0.291599    0.65558100   -1.00381200
Se   15.91700000    1.11892000    3.66402000      0.368862    0.42153700   -0.54333900
Se   15.75057000    1.30477000   13.20940000      0.791350   -0.14974600   -0.64236700
Se   15.91403000    7.25466000    3.51539000      1.235712    0.17395000   -1.03544700
Se   16.03450000    7.05948000   13.58374000      0.301500   -0.07744400   -0.30601600
Se   15.62212000   13.70750000    3.15803000     -0.878372   -1.49161700    0.80813500
Se   15.80207000   12.74882000   13.21216000      0.009358   -0.33041700    0.35426700
Se   15.80120000   18.85105000    3.33900000     -0.413984    0.38654100    0.83632900
Se   15.32331000   18.81246000   13.32154000      0.806713    0.63579000   -0.34061000
Se   21.77181000    1.56237000    3.68339000      0.058216   -0.61039400   -0.31489500
Se   22.08679000    1.74258000   13.50029000      0.635745   -0.89755800   -0.56564900
Se   21.79507000    7.15820000    3.48318000      0.122816   -0.79448500    0.49557900
Se   22.13092000    7.24906000   14.00287000      0.672071    0.16116200   -1.00581600
Se   21.35561000   13.05458000    3.40397000      1.321983   -0.89276800   -1.30042200
Se   21.45650000   13.19772000   13.28112000     -0.433507   -1.29623800    0.45531000
Se   22.07967000   18.76254000    3.85860000     -0.584695    0.53677200   -0.19528300
Se   21.72706000   18.87641000   13.75690000      0.349801    0.00494900   -0.45490500
Se    1.32549000    4.46397000    3.87682000      0.370599   -0.70042000   -0.33450800
Se    1.40857000    4.68941000   13.90964000      0.629770   -0.43032100   -0.29532800
Se    1.97158000    9.79792000    3.34433000     -0.247253    1.12864000    0.24870300
Se    1.74936000   10.38541000   13.43158000     -0.340492   -0.66132500    0.11888700
Se    1.04425000   15.79172000    3.83958000      1.142639    0.26237900    0.76867200
Se    1.02687000   16.01344000   13.98683000      1.002364   -0.22306400   -0.15310400
Se    1.44942000   22.12459000    3.53819000     -0.615512   -0.54322600   -0.34434300
Se    1.46599000   21.82945000   13.74027000      0.450361   -0.09193000    0.11630900
Se    7.30287000    4.45998000    3.95005000     -0.205155   -0.81938400   -0.73629400
Se    7.30777000    4.58898000   12.98673000     -0.551467   -0.30884600    0.37630700
Se    7.57572000   10.11929000    3.52330000     -0.051432    0.22575400    0.12010200
Se    7.63680000    9.98265000   13.02224000     -0.258081   -0.08673600    0.54467100
Se    7.22356000   15.88988000    3.48671000      0.320565    0.78449000    0.62853900
Se    7.14329000   15.70757000   13.30656000     -0.382646    0.72690400   -0.00773500
Se    7.63476000   21.60340000    3.45621000     -0.830062   -0.48958000    0.21797500
Se    7.52525000   21.59178000   13.04100000     -0.076357   -0.21999900    0.44323100
Se   13.32854000    4.14356000    3.54317000      0.968791    1.39707400    0.62822400
Se   12.88656000    4.43872000   13.73677000      0.114872   -0.39752700   -0.84264900
Se   13.31488000   10.39234000    3.38577000      0.109207    0.48824400    0.39177200
Se   13.47334000   10.14391000   13.10200000     -0.099511    0.06688200    0.52287000
Se   13.13158000   16.35132000    3.63666000      1.238703    1.13255900    1.57713800
Se   13.04135000   15.82693000   13.18979000      0.130646   -0.00168600    0.23209000
Se   13.13672000   21.97119000    4.16695000     -0.020777   -0.18280300   -0.27509400
Se   12.66330000   21.72947000   13.48854000     -1.835526    1.19164400   -1.56273100
Se   18.67815000    4.49964000    3.47956000      0.133793   -1.19771700    0.17246400
Se   18.58744000    4.07877000   14.10603000     -0.041159    0.57147200   -0.59338600
Se   19.05885000    9.92552000    3.11740000      0.568691    0.80670800    1.03715400
Se   19.12498000    9.76787000   13.30357000      0.415137    0.47467300    0.49429400
Se   18.67222000   15.91158000    3.89895000      0.091507   -0.30798300   -0.38503200
Se   18.62436000   15.85390000   13.49157000     -0.535984   -0.87581400   -0.10902000
Se   18.74584000   21.77785000    3.56613000      0.336058   -0.23015100    0.12334300
Se   18.34515000   21.45665000   13.25951000      1.168181    0.99075300    0.97064600
