384
23.23808000 23.23808000 19.51320000
Ge    5.90288000    5.68286000    9.82303000     -0.970585   -0.34092300    0.78604800
Ge    5.41631000    6.07079000   19.28768000      0.473427    0.57239100    0.18426800
Ge    5.79723000   11.93411000    9.81355000     -0.851821    0.31876100    0.17770900
Ge    5.76726000   11.54488000    0.01999000     -1.286995    0.03965900    0.34098800
Ge    6.15937000   17.62142000    9.87959000      0.134025   -0.44557000    0.67202400
Ge    5.53515000   17.32684000    0.04039000     -0.892559   -0.12135000   -0.21694400
Ge    5.92044000   22.98609000   10.20282000     -1.111915   -0.71516400   -1.33590100
Ge    5.48977000    0.49949000   19.48149000     -0.030614   -0.68419400   -0.00813900
Ge   11.34684000    6.12414000   10.14146000     -1.038607   -0.71819600   -2.30693400
Ge   11.52269000    5.82894000   19.50292000      0.148783    0.29200600    0.03269000
Ge   11.57288000   12.31177000    9.95730000     -0.363279   -1.13693000    0.04633800
Ge   11.76788000   11.68607000   19.10398000      0.029082   -0.65106100    0.60599900
Ge   11.32621000   17.66846000    9.87019000      0.925202   -0.81931400    1.00559700
Ge   11.96562000   17.45472000    0.10434000     -0.014538   -0.98773500    0.04470400
Ge   11.59772000   23.03054000    9.70987000     -1.060396    0.23674900    0.28776400
Ge   11.96713000    0.11422000   19.45935000      0.029701    0.35286100    0.15785600
Ge   17.32298000    5.38411000    9.65987000     -1.009208    1.01841900   -0.39080200
Ge   17.51823000    5.58650000   19.39566000      1.741784   -0.82651800    0.93675400
Ge   17.48334000   11.38116000    9.81849000      1.354799    0.96437700   -0.81123400
Ge   17.20001000   11.33447000   19.39649000     -0.204346    1.47603800   -0.53344500
Ge   17.32882000   17.28244000    9.53907000      1.238876    0.62810900   -1.54639100
Ge   17.64304000   17.28276000    0.47328000     -0.097397    0.27859800   -0.96304000
Ge   17.43105000    0.19296000    9.61463000      0.745515    0.07614900   -1.37149600
Ge   18.19743000   23.16608000   19.49890000     -0.381591    0.88039500   -0.63899500
Ge   22.96153000    5.70274000    9.73495000     -0.881343    0.23496900    0.08478800
Ge   23.11741000    5.94523000    0.05188000     -0.644988    0.09517900   -1.25540900
Ge    0.29538000   11.68213000    9.64662000      0.334355   -0.53308600    0.89312200
Ge   22.98888000   11.45523000   19.38338000     -0.134078    0.30719600    0.06565200
Ge    0.59326000   17.65608000    9.50250000      0.204464   -0.92949800    0.54738000
Ge    0.00685000   17.54022000    0.01560000      0.891177   -0.66311400    0.61365300
Ge   23.14288000   22.98598000    9.66868000      1.756676    1.00879400   -0.24603700
Ge    0.20533000   23.22501000    0.37636000     -0.780532    0.69825100   -0.73693800
Ge    2.72666000    5.70883000    7.57457000     -0.148570    0.62379500   -0.25192000
Ge    2.41072000    6.02053000   16.85980000      1.112951   -0.39201400    0.11063800
Ge    3.18744000   11.56959000    7.30538000     -0.842251    1.14750800    1.05404100
Ge    2.67165000   11.79975000   16.84877000      0.316316   -0.82805200    0.47896100
Ge    3.59895000   17.46484000    7.16333000     -0.672053    1.23186200    0.26423800
Ge    2.82103000   17.26122000   16.96938000     -0.598467   -1.31163200    0.26836700
Ge    3.30290000   23.19125000    7.51399000     -0.814100    1.12803400    1.49437300
Ge    2.67596000    0.14765000   17.07058000      0.357075   -0.54748500    0.32979700
Ge    8.69046000    5.92349000    7.40778000      0.604316    0.54221800    0.13167700
Ge    8.68032000    5.88009000   16.87732000     -0.590057    1.95318800    1.06497800
Ge    8.88039000   11.91375000    7.12667000      0.341885   -0.42528600    2.62212300
Ge    8.47945000   11.63173000   17.02442000      0.353479   -0.03698000   -0.10845100
Ge    8.72275000   17.12852000    7.07724000     -0.396942   -0.06459700    0.49020900
Ge    8.43234000   17.24939000   17.70719000     -0.220737    0.08746400   -0.68082900
Ge    8.50833000   23.18689000    7.31650000      0.902265    1.33080500   -0.67241300
Ge    8.86677000    0.20298000   17.45363000      0.439576    0.01289400   -0.52695200
Ge   14.19652000    5.96685000    7.10403000     -0.054932    0.18820600    0.79363000
Ge   14.85569000    5.64564000   17.01355000     -0.389387    0.47208100    0.59062000
Ge   14.51776000   11.76333000    7.41437000      0.480523   -0.94111100    0.60040300
Ge   14.40625000   11.42192000   16.64767000      0.248669   -0.27895300    0.58264300
Ge   14.37814000   17.32789000    7.33841000      0.450911   -0.12273400    0.20838200
Ge   14.86032000   17.56383000   17.39576000      0.738842   -1.22323600    0.53723200
Ge   14.69115000   23.02364000    7.15419000      0.879267    0.28128300   -0.15857700
Ge   14.89076000   23.21580000   17.27120000      0.611579   -0.29948900   -0.84544600
Ge   20.11526000    5.83563000    7.17472000     -0.303079    0.60409400    0.35752700
Ge   20.36838000    6.06714000   16.87517000      1.642696   -2.39552800    0.53484300
Ge   20.56732000   11.36916000    7.47293000     -0.726021    0.29135300    0.40118700
Ge   20.03926000   11.60304000   16.80934000      0.143106    1.20569200   -0.21541500
Ge   20.66911000   17.59915000    7.13380000     -0.078793   -0.06793600   -0.59444600
Ge   20.38927000   17.70632000   17.20985000      0.878355    0.45269700    1.09198900
Ge   20.55932000   23.20443000    7.28296000     -0.741789    0.09000800   -0.08626700
Ge   20.64177000   22.96283000   17.16351000     -0.287989    0.59812200   -0.32389000
Ge    3.15712000    2.92890000    5.01157000     -0.784478   -0.94482200   -0.48666500
Ge    2.65526000    2.77294000   14.61105000      1.361275    0.13884700    0.21989300
Ge    3.05495000    8.73031000    4.86639000     -1.595074    1.46024100    1.23650700
Ge    2.80691000    8.86886000   14.35724000     -0.004399   -0.03247700    1.05243300
Ge    3.02222000   14.30694000    4.99683000      1.633899    2.03083700   -0.39549300
Ge    2.57974000   14.69219000   14.35640000      0.588732   -0.63200400    0.09526000
Ge    2.96941000   20.57227000    5.17667000     -0.234984   -0.81455200   -0.98609000
Ge    3.17236000   20.02077000   14.77731000      0.125889    1.62131900   -0.49482700
Ge    8.61440000    2.83217000    4.81280000      0.038284    0.71455000    0.27470400
Ge    8.84050000    3.12547000   14.65810000     -2.555643   -1.48074200   -0.13045200
Ge    8.81243000    9.00796000    4.76962000     -1.456127    0.19578900    0.67381500
Ge    8.63319000    8.90459000   14.55749000      0.457215   -0.00659500   -0.89861000
Ge    9.04780000   14.38742000    4.51760000      0.171731    1.54619800    0.20193000
Ge    8.59124000   14.49031000   14.74808000     -0.221773    0.89215100    0.48983400
Ge    8.70014000   20.15806000    4.75171000     -0.533552    0.29739900   -0.35714700
Ge    9.03884000   20.18421000   15.37578000     -0.401466   -0.52051500   -0.62711200
Ge   14.40885000    2.75730000    4.80313000      0.694717    0.52845900    0.00354000
Ge   14.65649000    2.74618000   14.66007000      0.018755   -0.69552600   -0.77090700
Ge   14.23346000    8.84921000    4.97937000     -0.270484    0.37269000   -0.21921600
Ge   14.65728000    8.53183000   14.37067000      0.008897   -0.25126300    0.58863000
Ge   14.33825000   14.34494000    4.89723000      1.866703    0.83243900   -0.68445300
Ge   14.74681000   14.70023000   14.78981000      0.321263    0.38775400   -0.53563400
Ge   14.26819000   20.06198000    4.77055000      1.092210    0.91119600   -0.06048900
Ge   14.56973000   20.38081000   14.80715000     -0.452475    0.81719900    0.00054400
Ge   20.16319000    3.04144000    4.88400000      0.988390    0.18276900   -0.42265100
Ge   20.12501000    2.76433000   14.86279000      0.533009    1.48109500   -0.73062500
Ge   20.33830000    8.81515000    4.72889000     -0.540951   -1.18408300    0.47075200
Ge   20.23366000    8.52365000   14.40002000      0.460193    0.44497600   -0.63066300
Ge   20.15863000   14.35483000    4.96204000      0.218797   -0.97436200   -0.94271000
Ge   19.94535000   14.91483000   14.94546000      0.409583   -0.24346600   -1.64388500
Ge   20.46873000   20.72481000    4.82466000      0.823075   -1.56460200    1.23352400
Ge   20.38503000   19.92917000   14.55590000      0.538191    1.43622500   -0.68852800
Ge    5.62936000    3.10348000    2.44036000      2.107828    0.30987900   -0.34216800
Ge    5.73116000    2.62849000   12.39083000     -0.176123    0.60762300   -0.49040600
Ge    5.70581000    8.95193000    2.41229000     -0.885665    1.23396500    1.32917600
Ge    5.60653000    8.52062000   12.27746000      0.898652    0.91947200   -0.07041100
Ge    5.83057000   14.51407000    2.49905000      1.535449   -0.89513600    0.72629900
Ge    6.00887000   14.90129000   12.26833000     -1.428326   -0.78292100   -0.70978200
Ge    5.71168000   20.46479000    2.32561000      0.002712    0.03254000    0.36461400
Ge    6.17365000   20.07348000   12.63477000      0.572768    0.00137600   -0.05713300
Ge   11.65207000    2.77792000    2.41816000     -0.166543    0.72713300    0.82092800
Ge   11.46865000    2.92596000   12.17535000      0.448857    1.26879200    0.47370700
Ge   11.61277000    8.92322000    2.33010000     -1.146550    0.28251800    0.67670300
Ge   11.53576000    9.00818000   12.41367000     -0.555238    1.35732700    0.04473600
Ge   11.71911000   14.22074000    2.16580000      0.260773    0.87120600    1.07165100
Ge   11.72910000   15.02967000   12.52636000      0.167645    0.06127700   -0.45242500
Ge   11.60277000   20.28458000    2.09955000     -0.669653    0.10241800    0.41654000
Ge   11.43545000   20.46182000   12.56658000      0.316155   -0.78191700   -0.28206500
Ge   17.25374000    2.69522000    2.52886000     -1.175686   -0.30126500   -0.22633400
Ge   17.23917000    2.59334000   12.11659000      1.914951    1.55400400   -0.70078500
Ge   17.20736000    8.63111000    2.57938000     -0.613153   -0.51507900   -0.85789200
Ge   17.31516000    8.48059000   11.95756000      0.027881   -0.21467000   -0.07674900
Ge   17.24192000   14.30527000    2.34130000     -1.005160   -0.38899400    0.13303500
Ge   17.28061000   14.57740000   11.98523000     -0.302878   -0.91146600    0.11884700
Ge   17.66040000   20.24387000    2.56762000      0.016950    0.63993400   -0.11437300
Ge   17.20982000   20.35531000   12.08383000      0.366683   -0.05247400   -0.89503200
Ge   23.21888000    2.96505000    2.42028000      0.842020    0.20684800    0.27724600
Ge   23.15463000    2.60214000   12.21382000     -0.042447    0.37804600    0.23107000
Ge   22.98625000    8.70747000    2.36203000      0.323699   -0.09130900    0.55318600
Ge   23.21529000    8.67633000   12.17301000      0.374856    0.44922500   -0.30526000
Ge   23.21534000   14.17732000    2.42267000      0.488416    0.40462100    0.38593500
Ge   22.96712000   14.63724000   12.09359000      0.758463   -0.06821700   -0.11786600
Ge    0.34342000   20.42101000    2.73771000     -0.044674   -1.42646600   -0.24371400
Ge    0.04174000   20.28687000   12.17882000      0.143311   -0.70924500   -0.44405700
Se    1.66449000    1.58027000    1.29160000     -0.358776    0.37619700    0.27636000
Se    1.39935000    1.24606000   10.89353000     -0.375093   -0.19621900    0.30305200
Se    1.30886000    7.42350000    1.07818000      0.436084    0.39737700    0.42448600
Se    1.28138000    7.04437000   11.01181000      0.261359   -0.27320000   -0.38028800
Se    1.36533000   12.83810000    1.03296000     -0.000819    0.00919500    0.04879500
Se    1.49857000   13.20720000   10.97901000     -0.423992    0.70052700    0.53850700
Se    1.73568000   18.63697000    1.37875000     -1.108055    0.78019500    0.23145900
Se    1.79890000   19.22507000   10.82181000     -0.553935   -0.33529500    0.29610600
Se    7.14309000    1.94938000    0.88607000     -0.626973   -0.00733300    0.66137000
Se    7.20353000    0.94593000   11.65483000      1.675776    0.37724400    0.44241000
Se    6.84138000    7.69930000    0.95245000      1.344637   -1.38999100   -1.12744000
Se    7.17935000    7.10248000   11.29767000      0.633440   -0.43313500   -0.41007900
Se    7.26733000   12.96926000    1.20225000     -0.565717    0.30320100    0.14488600
Se    7.29406000   13.25691000   11.06740000      0.342779    0.22292400    0.44372500
Se    6.97095000   18.75247000    1.08806000      0.966561    1.07546900    0.72962800
Se    7.78253000   18.69774000   11.32231000     -0.921404    0.58195100    0.04294900
Se   13.28349000    1.31881000    1.54584000      0.054476   -0.18074400   -0.58766500
Se   12.78585000    1.45954000   11.05134000      1.177560   -0.95912300   -0.82967000
Se   12.92898000    7.23140000    1.54405000      0.879885   -1.30006700   -1.07799200
Se   12.76834000    7.55411000   11.09663000      2.400022    0.50636600    0.24987200
Se   13.23873000   12.80450000    1.22937000      0.323715   -0.58571100   -1.16597600
Se   13.10608000   13.53061000   11.26201000      0.151616   -0.07938700   -0.05982900
Se   13.32954000   19.23928000    0.82702000     -0.066125   -0.42679200    0.33759200
Se   12.89221000   19.19348000   10.98088000     -0.718829   -0.32009300    0.21581800
Se   18.99511000    1.58844000    1.49806000      1.493708   -0.13276800   -0.54677600
Se   18.88201000    1.31247000   10.92414000      0.747298    1.07400000    0.79785200
Se   18.65461000    7.20268000    1.34589000      0.628101   -0.43282600   -0.19755600
Se   18.77316000    7.08390000   10.59800000     -0.224438   -0.05985600    0.28540800
Se   18.61431000   13.08566000    0.76071000     -0.094318    0.02228200    0.50461200
Se   18.83335000   13.00255000   11.06721000     -0.132628   -0.24658600   -0.20281600
Se   19.20503000   18.62935000    1.77796000     -0.200909   -0.16164300   -0.29531200
Se   18.62026000   18.93756000   10.54620000      0.381467    0.66459900    1.02754900
Se    4.28037000    4.60042000    1.27633000     -1.263567    0.42116200   -0.31183700
Se    4.33918000    3.99490000   11.00591000      0.805896    0.71568100   -0.23134700
Se    4.03605000   10.31224000    1.41827000      0.724453    0.49718300   -0.60007300
Se    4.52449000   10.03978000   10.81855000     -0.440370    0.62847600   -0.43173600
Se    4.32253000   15.87316000    1.43637000     -1.922857    0.12397700    0.15355300
Se    4.48744000   16.15805000   10.86198000      0.778708    0.04450000    0.35637000
Se    4.09627000   21.78062000    1.17932000      0.690948    1.03876400   -0.59424600
Se    4.49770000   21.37612000   11.48769000      0.615065    0.35460900   -0.59536500
Se   10.11627000    4.32711000    1.33897000      0.111204   -0.01276400   -0.33722200
Se    9.95261000    4.48408000   11.23012000     -0.109269    0.05417500   -0.07451700
Se   10.30423000   10.08727000    0.74067000     -0.244923    0.41213700    0.20894800
Se   10.16059000   10.65977000   11.21814000      0.176654   -0.11135100   -0.01228800
Se   10.41883000   15.76029000    1.00174000     -0.079710    0.49557300    0.00722000
Se    9.99792000   16.11247000   11.36924000      0.501567    0.87417000   -0.91783000
Se   10.35288000   21.94493000    0.88526000     -0.605772   -0.31659300    0.36690200
Se    9.89262000   21.51622000   11.06497000      0.709862    0.78818700   -0.42449200
Se   16.02680000    4.21047000    1.09478000     -0.538035   -0.34672900    0.26351600
Se   15.74048000    4.07706000   11.04276000      0.280000    0.41011200   -0.65562900
Se   15.82010000    9.79380000    0.90576000     -0.248892   -0.16210600    0.94764700
Se   15.89253000   10.08553000   10.75727000     -0.997067   -1.02690300    0.87915000
Se   15.77918000   16.08930000    1.45113000      0.866340   -0.39811700   -0.07868800
Se   15.83604000   15.93015000   10.54817000     -0.752782   -1.06255600    0.96933200
Se   16.66498000   21.85142000    1.01516000     -1.825652   -1.17394800    0.96845500
Se   16.02177000   21.97947000   10.56031000     -1.268635   -1.61060200    1.50531400
Se   21.71283000    4.33005000    1.04362000     -0.069579   -0.34854300    0.59584600
Se   21.64178000    4.06586000   11.05582000     -0.161422    0.41224200   -0.35596900
Se   21.45019000   10.21307000    1.31667000      0.462628    0.02377200   -0.50453300
Se   22.04443000   10.30842000   10.95090000     -0.836761    0.12447700   -0.30730500
Se   21.97559000   15.85647000    1.29345000     -0.670500    0.38377100   -0.11545200
Se   22.06926000   16.30897000   10.57304000     -0.046586    0.06648400   -0.20577100
Se   22.08709000   21.98585000    1.81672000     -0.607039   -0.05226500   -0.37168500
Se   21.76479000   21.64629000   10.93071000     -0.839044   -0.42370900    0.32249400
Se    0.85569000    4.25288000    8.19526000      0.962911    0.19412800    0.20175600
Se    1.12798000    4.48955000   18.17112000      0.448370   -0.15757600   -0.26224200
Se    1.82781000   10.17522000    8.73888000      0.038986   -0.13157400   -0.42830500
Se    1.26069000   10.16565000   18.10961000      0.344451   -0.02523000   -0.45900900
Se    2.04852000   16.15620000    8.31872000     -0.510351   -1.07334200    0.52513400
Se    1.56095000   15.82040000   18.54689000     -0.342483    1.28345800   -0.59031600
Se    1.89500000   21.64586000    8.78723000     -0.556819    0.87913200   -0.12331200
Se    1.22559000   21.80499000   18.35847000      0.698973    0.18593100   -0.31977800
Se    7.26573000    4.29620000    8.47985000      0.150041    0.24858300    0.05854900
Se    6.95764000    4.79072000   18.03681000     -0.244127   -1.22764300    0.25172000
Se    7.24320000   10.65560000    8.57963000      1.048188   -0.90375900   -1.10399400
Se    7.41676000   10.09876000   18.58412000     -0.122491    0.01814500   -0.68023900
Se    7.39811000   15.94305000    8.78027000      0.432176   -0.37274000   -0.87558200
Se    6.89516000   15.70922000   18.63167000      0.694072   -0.48205300   -0.34454500
Se    7.21909000   21.65489000    8.46399000     -0.447584   -0.20807100    1.08221200
Se    7.12203000   22.20049000   18.50408000     -0.125253   -0.34659500    0.14291900
Se   12.83434000    4.72408000    8.65078000     -0.348603   -0.21196100    0.47002000
Se   13.06674000    4.41927000   18.16483000     -0.138477   -0.06077500    0.37447200
Se   12.87054000   10.52603000    8.97086000      0.509975    0.82796400   -0.79388200
Se   13.28871000    9.97897000   18.25173000     -0.684380    0.32780800   -0.81021600
Se   12.94024000   16.14230000    8.81164000     -0.178054   -0.26078300    0.12754300
Se   13.09197000   16.00000000   18.18665000      0.941114    0.08911400   -0.33138200
Se   13.39386000   21.76727000    8.69432000     -0.419231   -0.57465700    0.16819800
Se   13.38054000   21.80368000   18.36110000      0.090498   -0.21169000    0.03163600
Se   18.71766000    4.15403000    8.21882000      0.386086   -0.29022200   -0.01278300
Se   19.24412000    4.34099000   18.07572000     -0.698768    0.44400600    0.60586500
Se   19.02843000    9.86231000    8.72834000      0.286315    0.83644700   -0.14659000
Se   18.73937000   10.16732000   18.08704000      0.160265   -1.18766900    0.10287500
Se   19.12556000   16.13578000    8.06432000     -0.986066   -0.50576100    1.12931300
Se   19.43205000   16.11548000   18.54129000     -1.579704   -0.34794200    1.36655400
Se   18.95372000   21.91519000    8.62795000      0.808848   -0.47923600   -0.76616000
Se   19.45442000   21.40511000   18.52154000      0.027864    0.52526000   -0.10327000
Se    4.67155000    1.50912000    9.03405000     -0.474531   -1.27841700   -0.52106800
Se    4.11065000    1.91282000   18.01843000     -0.129748   -0.91194200    0.18323300
Se    4.07642000    7.09121000    9.17427000     -0.135959   -0.41342600   -0.84570100
Se    3.87133000    7.50069000   18.18041000     -0.156364   -0.24714700   -0.14786500
Se    4.35434000   13.38228000    8.45976000     -0.026623   -0.76879300    0.22993400
Se    4.11625000   13.06160000   18.37047000      0.530834   -0.39230200   -0.25366200
Se    4.70275000   18.97438000    8.71648000     -0.322675    0.84780300   -0.62682600
Se    4.34593000   18.66292000   17.99070000      0.257008    0.93529000    0.65999200
Se   10.39170000    1.39812000    8.29750000     -0.746235   -0.93600000    0.00452600
Se   10.65998000    1.69668000   18.20338000     -0.262867   -0.44319500    0.20229400
Se    9.96822000    7.65038000    8.68753000     -0.076353   -1.62253100    0.28082100
Se   10.07456000    7.35322000   18.21946000      0.257528   -0.52208300    0.21226700
Se    9.87995000   13.53732000    8.75645000      0.343419   -0.32987000   -0.55000400
Se   10.21596000   13.13028000   17.88953000      0.215703   -0.00034100    0.18229400
Se   10.06612000   18.68444000    8.26217000     -0.530582    1.43845700   -0.56820200
Se   10.13944000   18.57011000   18.72825000     -0.743755    1.29390200   -0.37016800
Se   16.24480000    1.43320000    8.03695000     -0.567609    0.25625600   -0.02898100
Se   16.51610000    1.40488000   18.18147000      0.475293   -0.33685000    0.80417700
Se   16.05155000    7.06735000    8.16853000      0.213310   -0.33091800    0.77306900
Se   16.17657000    7.14246000   18.48763000     -1.254839    0.21720700   -1.44394300
Se   16.45139000   12.96277000    8.34940000     -0.893354    0.01359100   -0.07007500
Se   15.61662000   12.74846000   18.20006000      0.736589    0.45315400    0.02478500
Se   16.01598000   18.81910000    8.22764000     -0.101335   -0.15753600    0.07966800
Se   16.18520000   19.01988000   18.71133000      0.521158   -0.59594900    0.24163100
Se   21.98265000    1.45259000    8.43784000      0.180050   -0.25831000    0.37133100
Se   21.77169000    1.37908000   18.59132000      0.068324   -0.48497400   -0.30622500
Se   21.50976000    7.30628000    8.45408000      0.589994   -0.74081800    0.70139700
Se   21.79658000    7.44105000   18.05442000      0.613031    0.33760700    0.92096400
Se   22.06031000   12.99365000    8.47726000     -0.824222    0.48751300   -0.63653300
Se   21.65132000   12.96737000   18.04541000     -0.152235   -0.09359900    0.11745400
Se   22.43704000   18.89059000    8.10347000     -0.979586    0.75092700   -0.21708900
Se   22.00843000   19.18066000   18.19969000      0.270030   -0.35777500    0.21154600
Se    1.76092000    1.27880000    6.21532000      0.169469    0.56669500   -0.17628600
Se    1.21718000    1.18145000   15.52820000     -0.565728   -0.27001800    0.52474600
Se    1.56091000    7.56562000    6.37522000      0.156122   -0.55791800   -0.16469500
Se    1.22910000    7.44054000   15.43861000     -0.884747    0.24844900    0.14890100
Se    1.70026000   12.78638000    5.87755000     -1.667289   -1.53102300    1.49073500
Se    1.13471000   13.22705000   15.71986000      0.126431    0.03274900   -0.50777600
Se    1.78606000   19.04026000    6.53724000      0.709538   -0.49098800   -0.60833300
Se    1.50255000   18.62606000   15.50157000     -0.999183   -0.43543700    0.55655900
Se    7.00714000    1.48146000    5.93482000      0.672175   -0.64937500    0.66384700
Se    7.50752000    1.55045000   16.09211000     -0.107546    0.49296600   -0.57703900
Se    7.37584000    7.38013000    6.10464000     -0.313282    0.65032900   -0.37563500
Se    7.31418000    7.47941000   15.76403000     -0.869633   -0.82350100    0.39232300
Se    7.58093000   13.07434000    5.72016000     -1.900486    0.68351900   -0.28420600
Se    6.95579000   12.93473000   15.66005000      0.374446    0.09459200    0.03520900
Se    7.20653000   18.47903000    5.81064000      0.146772    0.79482600   -0.13436400
Se    7.25592000   18.74855000   16.22343000      0.584754    0.38468500    0.58664400
Se   13.18756000    1.32042000    6.17476000     -1.164921   -0.05563500    0.15591800
Se   13.36180000    1.39104000   16.03299000     -0.255230   -0.25190900    0.38124400
Se   12.65106000    7.63228000    6.35244000      0.259455   -0.02702100   -0.46912200
Se   13.46376000    7.34930000   16.15219000     -0.474145    0.31838100   -0.80003100
Se   12.94453000   13.05409000    6.14720000     -0.671501   -0.67285100    0.84413300
Se   13.11655000   13.39188000   15.87831000     -0.185361   -0.60072500    0.19483500
Se   12.95587000   18.62791000    6.00534000     -1.091011    0.04571200   -0.17288200
Se   13.43640000   18.64401000   16.02090000     -1.780334    1.53598100   -0.64141300
Se   19.04946000    1.46403000    6.09354000     -0.766413   -1.04238300    0.56698200
Se   18.81632000    1.09535000   15.77445000      0.551248   -0.91863100    1.00499600
Se   18.76900000    7.57475000    6.14745000     -0.076665   -0.38790200   -0.50590100
Se   18.82619000    7.32049000   15.85579000     -1.610287    0.59086600   -0.85121400
Se   19.01878000   12.69722000    6.21040000     -0.278192    0.00618000    0.12114900
Se   18.44255000   13.36566000   15.82518000      0.474174   -0.93057400    0.60744900
Se   19.13821000   19.13212000    6.12906000      0.333544    0.21541800    0.06942700
Se   18.91948000   18.79625000   15.90801000     -1.709692    0.07164100   -0.21822500
Se    4.35979000    4.54639000    6.20171000      0.422758    0.13351700    0.34775200
Se    3.93353000    4.69202000   15.45995000     -0.020465   -0.39485400    0.75182900
Se    4.57757000   10.12344000    6.30304000      0.806899   -1.10135300   -1.12280300
Se    4.23999000   10.13219000   15.77353000     -0.299889    0.79222700    0.30688600
Se    4.76327000   16.13947000    5.69948000     -0.229593   -0.84298200   -0.32824700
Se    4.17341000   15.67846000   15.81122000     -0.035614    0.21722900    0.00927800
Se    4.59795000   21.76504000    6.30288000      1.790076   -0.15806800   -0.45601200
Se    4.17777000   21.54319000   16.44209000      0.108223    0.09420500   -0.62872800
Se   10.00718000    4.31480000    6.21130000      0.364058   -0.35096800   -0.13997300
Se   10.10200000    4.36094000   16.01260000      2.302423    0.50918900    0.38257600
Se   10.30439000   10.34765000    6.16091000      0.518298   -0.58678900   -0.20280500
Se   10.09827000   10.28226000   15.78627000     -0.075759    0.22991300    0.11962600
Se   10.29204000   16.20979000    5.59020000      0.291535   -0.79692500    0.14465300
Se    9.85410000   15.89642000   16.41843000      0.342244   -0.74117400   -1.03613200
Se   10.04593000   21.80204000    5.98710000     -0.253493   -0.23213700    0.04222400
Se   10.39548000   21.93142000   16.23006000     -0.296042    0.04780100    0.46227000
Se   15.64423000    4.58708000    5.82645000      0.163317   -0.42563100    0.16696500
Se   16.14549000    4.30507000   15.50321000      0.907402    0.52825800    0.60452600
Se   15.89519000    9.97868000    6.27786000     -0.743281    0.63375300    0.17499500
Se   16.09461000   10.07659000   15.56709000      0.154418    0.24503400   -0.13673000
Se   15.87043000   15.89177000    6.13931000     -0.538245   -0.56366400   -0.25979300
Se   16.20819000   16.42488000   15.76286000      0.396252   -0.96045500   -0.00710200
Se   16.01725000   21.42888000    5.82199000     -1.071380    0.32245000    0.49287100
Se   16.29351000   21.64054000   15.90460000     -0.803175    0.54291300    0.35082500
Se   21.66234000    4.43026000    6.10211000      0.123724   -0.04192100   -0.45043500
Se   21.84896000    4.24498000   15.84045000     -1.477319    0.39325300    0.00562700
Se   21.83571000    9.83360000    6.22550000      1.070022    0.26951000   -0.33419400
Se   21.54555000   10.22484000   15.53704000      0.074792   -0.10470300   -0.00552000
Se   21.71944000   15.89639000    5.63348000      0.727163    0.90429800    0.83242700
Se   21.63850000   16.00142000   16.28110000      0.779661   -0.70885700   -1.05125400
Se   22.13563000   22.05461000    5.85661000     -0.558347    0.09739000    0.76488200
Se   21.93159000   21.45992000   15.76874000      0.041432   -0.20653700   -0.31484700
Se    4.60293000    1.43013000    3.66938000     -0.679697    0.08640700    0.42441200
Se    4.30088000    1.31796000   13.61284000     -0.761393   -0.65416200    0.73604000
Se    4.53790000    7.42669000    3.85183000      1.071490   -1.65395900   -0.80043200
Se    3.76576000    7.28634000   12.97631000      0.396909   -0.90906200    0.00010700
Se    4.67375000   12.95447000    4.15719000      1.058119    0.15608100   -1.50054500
Se    4.36567000   13.36561000   13.21769000     -0.402475   -0.00192600    0.23104800
Se    3.99958000   19.08659000    3.38576000      0.188320    0.59482500    0.78336400
Se    4.76797000   18.53998000   13.82912000     -0.142012   -0.11513300   -0.11152700
Se   10.35539000    1.35554000    4.05310000      0.131968    0.63631700   -0.80864400
Se   10.36337000    1.66407000   13.74599000     -0.188583   -1.42983400    0.03907300
Se    9.79177000    7.40209000    3.48346000      1.297737    0.43220500   -0.71648300
Se   10.03790000    7.35135000   13.19621000     -0.471185    0.89435900    0.71839200
Se   10.63043000   12.91071000    3.80224000      0.310388   -1.04096800   -0.62677900
Se   10.20393000   13.43910000   13.31204000     -0.564401   -0.92466100    0.80112500
Se    9.89221000   18.78872000    3.07890000      0.438346    0.61409300    0.19740800
Se   10.38248000   18.69314000   13.97143000      0.086303    0.91001300   -0.13418800
Se   15.90379000    1.18083000    3.85607000      0.441899    0.13224800   -0.56141400
Se   16.14372000    1.18972000   13.41263000     -1.654038   -1.33206700    1.53608500
Se   15.60087000    7.27591000    3.72652000      0.154632    0.16675600    0.09381800
Se   15.81854000    6.81108000   13.04424000      0.254298    1.45409300    0.10294800
Se   15.67368000   12.77383000    3.56265000      0.498953    0.42120700   -0.00230400
Se   15.88504000   13.07968000   13.36889000      0.098123    0.78383900   -0.10801000
Se   15.95918000   18.91129000    3.55430000      0.128985   -0.73925300   -0.21583900
Se   15.55748000   19.03056000   13.17861000      0.343616   -0.55928900   -0.65313800
Se   21.78910000    1.61232000    3.79915000      0.186175    0.17581600   -0.30191400
Se   21.71128000    1.38010000   13.80126000      0.525722   -0.56489500   -1.04920800
Se   21.55351000    7.13887000    3.54396000      0.495154    0.44684200   -0.03690300
Se   21.78662000    7.07280000   13.10159000     -0.846868    0.28337500    0.78795600
Se   21.57132000   12.82946000    3.45156000     -0.574964    0.49018500    0.62394900
Se   21.31340000   13.40063000   13.44194000      0.362179    0.46077600    0.07651100
Se   21.61663000   19.07445000    3.62692000      1.260852   -0.13960500   -0.37169000
Se   21.56624000   18.63239000   12.92591000      0.412386    0.17456500    0.13972700
Se    1.83255000    4.28962000    3.52145000     -0.631138    0.01943700    0.12685700
Se    1.38422000    4.16680000   13.36476000     -0.923808    0.57883100   -1.05837400
Se    1.47015000   10.10940000    3.44294000      0.041370   -0.33526500    0.41004200
Se    1.43253000   10.29667000   13.21562000     -0.716290    0.39097900   -0.29037800
Se    1.32406000   15.52578000    4.01690000     -0.362227    0.66898100   -0.95598700
Se    1.26421000   16.25125000   13.12982000     -0.275866   -0.61719800    0.12515400
Se    1.32159000   22.03803000    4.23172000      0.637912   -0.26800200   -0.51623900
Se    1.78105000   21.55526000   13.14206000      0.459881    0.00156000    1.12289700
Se    7.24636000    4.50702000    3.67448000     -0.146207   -0.64763500   -0.10739300
Se    6.98258000    4.24301000   13.56638000      0.637237    0.45789000    0.20037700
Se    7.17793000   10.51374000    3.60095000      0.407662   -0.90366500    0.10132400
Se    6.73533000   10.17544000   13.67161000      0.497605   -0.47420800   -0.22712600
Se    7.86211000   15.87589000    3.14212000     -1.212788   -0.41109000   -0.21613900
Se    7.20906000   16.24813000   13.68427000      0.831818   -0.00221700    0.67997900
Se    7.14884000   21.86606000    3.76193000      0.059393   -1.13532200   -0.43490400
Se    7.41447000   21.49448000   14.14087000     -0.035475    0.27814100   -0.46749900
Se   13.36779000    4.31074000    3.37152000     -1.035291   -0.46071400   -0.08288300
Se   13.21124000    4.18365000   13.46932000     -0.476949    0.26650600   -0.52304500
Se   13.01028000   10.50368000    3.52754000      0.206092   -1.08506000    0.36556700
Se   13.25583000   10.35811000   13.58968000     -0.460616   -1.07400500   -0.31314800
Se   13.21508000   15.77118000    3.39222000     -0.579106    0.19723100   -0.12860200
Se   13.32290000   16.32136000   13.61398000      0.157934    0.11721500    0.35066600
Se   12.92481000   21.60722000    3.58643000     -0.123433    0.29230400    0.07966300
Se   12.90326000   21.98106000   13.71241000      0.436843   -0.48746300    0.27859400
Se   18.41697000    4.22277000    3.83141000      0.474642    1.10214300    0.23519700
Se   18.67589000    4.11187000   13.37435000      0.271820   -0.08402300    0.28064800
Se   18.87656000   10.08775000    3.35022000     -0.021536    1.07306200    0.25853600
Se   18.86587000   10.02183000   13.10297000     -0.286069   -0.63113800   -0.04729600
Se   18.50517000   15.65141000    3.80365000      0.234706    0.18107300    0.18226600
Se   18.59824000   16.11722000   13.13795000      0.653379    0.76744600    0.93106400
Se   18.80324000   21.88324000    3.88956000     -1.104993    1.40021200   -0.82713700
Se   18.54795000   21.37569000   13.77801000      0.600249    0.35360200   -0.35460400
