384
23.23808000 23.23808000 19.51320000
Ge    5.87971000    5.62785000    9.55949000      0.122381    0.57313700   -0.21861200
Ge    5.99147000    5.67074000   19.50824000     -0.313715    0.57748900    0.18819300
Ge    5.58020000   11.57418000    9.69863000      0.555184    0.39502400    0.83405000
Ge    6.16131000   11.63770000   19.45407000     -0.592133    0.00869500   -0.83800700
Ge    5.83665000   17.20804000    9.75604000     -0.155101    0.60126900    0.91092400
Ge    5.71280000   17.37607000   19.50195000     -0.016643   -0.61000700    0.59712900
Ge    5.70903000   23.17218000    9.91408000     -0.296050    2.58288400   -0.23670700
Ge    5.63353000   23.12278000    0.19307000      1.193245   -0.99457800    0.49278900
Ge   11.54197000    6.10122000    9.48583000      0.410963    0.12067000   -0.13724600
Ge   11.62292000    5.59471000    0.18816000      1.281912    0.06813600   -0.39118000
Ge   11.67514000   11.73820000    9.64984000     -0.113181   -0.12210600   -0.47678900
Ge   11.57515000   11.87958000   19.38244000     -1.130022   -0.24843600    0.28996900
Ge   11.62956000   17.33885000    9.67665000     -0.010929   -0.48406500   -0.32353300
Ge   11.27246000   17.46853000    0.13210000      0.666114    0.49924900   -0.63906400
Ge   11.69629000    0.14343000    9.83405000      0.355579    0.03399000    0.00428100
Ge   11.71465000   23.23160000   19.39082000     -0.271864    0.78960000    0.87557100
Ge   17.33533000    5.59093000    9.74516000     -0.176571    1.39189400   -1.19960900
Ge   17.35155000    5.60955000   19.30698000      0.506694   -0.88327800    1.25738800
Ge   17.74049000   11.63942000    9.74959000      0.802715   -0.69457600    0.20754300
Ge   17.00141000   11.52645000   19.51318000      1.085845    0.24432000    0.17883100
Ge   17.46019000   17.10891000    9.80496000     -0.261089    1.13731400   -0.57492400
Ge   17.60911000   17.60930000   19.34007000     -0.264014    0.48380800   -0.71697300
Ge   17.99228000   23.21048000   10.08510000     -0.880171    0.13131600   -0.78065400
Ge   17.44831000    0.01634000   19.25691000      0.091602   -0.53451900    1.33580000
Ge   22.97457000    5.97465000    9.84282000      1.101969    1.16640600   -0.39766300
Ge   22.94722000    6.00132000    0.02929000      0.321052   -0.12072300    0.02608900
Ge   23.14595000   11.61239000    9.81841000     -1.626216    0.72392200    0.66257100
Ge    0.01185000   11.58781000   19.49350000      0.136326   -0.23019100   -0.34531500
Ge   23.08616000   17.68313000    9.94713000      0.824902    1.44273900   -0.11332800
Ge   23.07190000   17.58128000   19.27027000      1.287272   -1.18527400    1.05009300
Ge   22.91746000    0.22889000   10.06652000      1.147434   -0.66107200   -0.46445100
Ge    0.01089000    0.00173000    0.16703000      0.859700    0.94405800   -0.13012000
Ge    3.15116000    5.90292000    7.31325000     -0.689183   -0.08777800   -0.37139400
Ge    2.80769000    5.73963000   17.21784000      0.864185    1.00657900    0.22967200
Ge    2.57006000   11.56366000    7.48191000      0.280760    0.02764700    0.10132100
Ge    3.23425000   11.61984000   17.20457000     -0.151265   -0.43644700   -0.52145000
Ge    2.71520000   17.38698000    7.53099000      0.341546    0.04927600   -0.47982800
Ge    3.23359000   17.31228000   17.28934000     -0.753795   -0.34249700    0.07528700
Ge    2.80999000    0.00102000    7.37938000     -0.009090    0.11226700    1.45774300
Ge    3.02403000   23.04354000   16.86978000      0.338407   -0.53257600    0.46151200
Ge    8.75159000    5.91369000    7.30307000     -1.654483   -1.16895600    0.38183600
Ge    8.62758000    5.79183000   16.92617000      0.342738    0.31209300    0.48756900
Ge    8.82654000   11.63587000    7.20454000      0.535814    0.27843000    0.29697400
Ge    8.79118000   11.49360000   17.21197000     -1.571516   -0.98138400   -1.20712700
Ge    8.52784000   17.33556000    7.28373000     -0.082873   -0.62426200    0.12750100
Ge    8.35580000   17.24934000   17.14894000      0.840404    0.87907200   -1.23430100
Ge    8.70529000   23.14286000    7.31712000     -0.142425    0.03005100    0.67041600
Ge    8.54284000    0.00824000   17.08944000      0.715299   -0.45353300    0.61722500
Ge   14.68803000    5.64306000    6.86353000     -0.023388   -0.18345300    1.51725700
Ge   14.49469000    5.92346000   17.24403000     -0.721319    0.01190000   -1.52875800
Ge   14.70552000   11.58962000    7.33756000      0.704690   -0.88028000    0.41932600
Ge   14.54278000   11.87058000   16.86560000     -0.547053   -0.63820500   -0.33594000
Ge   14.66091000   17.44313000    7.42416000      0.268422   -0.28962300    0.07039800
Ge   14.19478000   17.77539000   17.07514000      1.522025   -1.04728800   -0.16855700
Ge   14.66764000    0.29072000    7.67442000      1.132827    0.13094000   -0.97444700
Ge   14.37254000    0.37562000   16.89906000     -0.503555   -0.02917400   -0.70167100
Ge   20.32053000    5.73694000    7.30293000     -0.386532    1.23719100   -0.18847900
Ge   20.29338000    5.84708000   17.12714000      0.562801   -0.33062000    0.03552200
Ge   20.62465000   11.59218000    7.25379000      0.815017   -1.01152400    1.17774600
Ge   20.11536000   11.65197000   17.22514000      1.072909   -0.56873700   -0.01344400
Ge   20.12263000   17.34433000    7.08365000      0.328073    0.96170100    0.72521500
Ge   20.37006000   17.50683000   16.91382000     -2.581542    0.99784100    1.03904800
Ge   20.38156000    0.20699000    7.10547000      0.552865    1.10501900    0.36497800
Ge   20.66639000   23.18988000   17.08359000      0.695938   -0.35243900    1.23112500
Ge    3.00946000    2.66053000    4.85111000     -0.945640    1.06373600    0.30351100
Ge    2.99319000    3.05763000   14.82195000     -0.372700   -0.95661100   -0.20182400
Ge    3.12403000    8.61120000    5.06443000     -0.873884    0.64659700    0.24794000
Ge    3.11976000    8.69103000   14.52058000      0.465183   -0.54506000    1.64977300
Ge    2.71347000   14.25988000    4.72888000      1.222153   -0.07622700    1.28957800
Ge    2.83712000   14.66762000   14.82629000      0.398232   -1.20333400   -0.53720900
Ge    2.62389000   20.51913000    4.99108000     -0.439481   -0.90344700   -1.26893700
Ge    3.23734000   20.13195000   14.49961000     -0.313869    1.27361200    0.51674500
Ge    8.71644000    2.78703000    5.02841000      0.158018   -0.13327200    1.14193300
Ge    8.59997000    3.01649000   14.39021000      0.370175    0.33822200    0.05899300
Ge    8.95430000    8.53492000    4.86020000      0.533075    1.14873100   -1.17154100
Ge    8.70632000    8.67306000   14.49120000     -0.931541    0.30063800    0.36790500
Ge    8.71004000   14.50305000    4.64016000      0.373102    0.48391300    0.10780300
Ge    8.47738000   14.37744000   14.60039000     -0.752578   -1.09469600    0.19389000
Ge    8.54456000   20.03155000    4.88460000     -0.322804   -0.33229800    0.42017400
Ge    8.85991000   20.02571000   14.67327000     -1.057299   -0.01890100   -0.19293000
Ge   14.68189000    2.71682000    4.83458000      0.744352    0.05567500    0.47155200
Ge   14.52162000    2.73220000   14.72811000     -0.503084    1.05030800   -1.89215900
Ge   14.83064000    9.04957000    4.80030000     -0.434749   -1.35686700   -0.29772400
Ge   14.37242000    8.81713000   14.59620000     -0.631725   -2.29280000   -0.06059700
Ge   14.62724000   14.77719000    5.08738000      0.746993    0.89984200   -0.93082100
Ge   14.51612000   14.51012000   14.39011000     -0.358220   -0.50805500    0.89249200
Ge   14.66705000   20.38295000    5.04826000      0.526885    0.80683100   -0.16231500
Ge   14.39063000   20.54866000   14.43318000     -0.454816    0.73096600   -0.43443000
Ge   20.32634000    3.04279000    4.57893000      0.285607   -1.01700600    0.89533300
Ge   20.49149000    2.94590000   14.86776000      0.944960   -0.09071400   -0.19421900
Ge   20.33561000    8.64720000    4.75653000      0.137803   -0.00048800   -0.37212700
Ge   20.46491000    8.69982000   14.81749000      1.165281   -0.65263200   -0.20332700
Ge   20.07348000   14.38033000    4.81226000      0.141266   -1.42040800   -0.26454800
Ge   19.94872000   14.37077000   14.90597000     -0.230609   -0.02825800   -1.38935500
Ge   20.42839000   20.35349000    4.71498000     -0.639327   -0.13313500    0.57193800
Ge   20.01005000   20.34098000   14.70168000      0.024298    0.09995900   -0.29769400
Ge    6.01835000    2.85663000    2.52370000      0.964132    0.12880900   -0.41373700
Ge    5.45118000    3.02098000   12.04237000      0.403363   -0.32812500    0.10763900
Ge    5.87035000    8.79567000    2.26313000      0.580103    0.31274900   -0.09729500
Ge    5.89692000    8.44734000   12.11006000     -0.632428    0.65206200    0.53645600
Ge    5.84440000   14.37163000    2.25429000     -1.433599    0.85183400    0.42647400
Ge    5.52457000   14.33529000   12.05301000     -0.291600    0.55649700   -0.35919500
Ge    5.89216000   20.25498000    2.55860000     -0.578621   -1.80286400   -0.23669600
Ge    5.93136000   20.14851000   11.93611000     -0.396794   -1.18132800    0.61937300
Ge   11.52770000    2.70135000    2.69153000      1.857688    1.04476200   -0.27371800
Ge   11.61026000    3.18701000   11.97649000     -0.492234   -1.32404200   -0.89184900
Ge   11.80528000    8.88458000    2.27885000      0.589007   -0.04105000    0.05770900
Ge   11.73287000    8.87540000   12.03082000     -0.724078   -0.05977500    0.28779400
Ge   11.64869000   14.68772000    2.52618000      1.214256    2.68996600   -0.40109400
Ge   11.49997000   14.25689000   12.27926000      0.347420   -0.56341400   -0.30898300
Ge   11.55530000   20.53308000    2.70919000      1.359120    0.11993700   -0.21918600
Ge   11.36924000   20.08923000   12.19475000      0.959226    0.52527300   -1.81684200
Ge   17.10502000    2.81364000    2.40565000      0.609354   -0.16167300   -0.18683000
Ge   17.63914000    2.83811000   12.23929000     -0.142535   -1.48086200    0.21217300
Ge   17.42544000    8.59491000    2.16699000     -0.057949    0.42844800    0.10122100
Ge   17.50030000    8.30450000   12.16865000     -0.024313    1.03595700   -0.15270400
Ge   17.45338000   14.71607000    2.19251000     -2.613904    0.33876900    0.46912100
Ge   17.30109000   14.33780000   12.15566000      0.181664   -0.61010500    0.46695000
Ge   17.17401000   20.44411000    2.39027000      0.187470   -0.63190900   -0.28301600
Ge   16.97567000   20.13782000   12.03228000      2.381219   -1.06466800    0.93772600
Ge    0.17332000    3.07975000    2.27397000     -0.852822   -0.02683300    1.13831300
Ge    0.00264000    3.43694000   12.38492000      0.101839    0.80015700    0.31986400
Ge    0.29935000    8.66634000    2.41863000      0.400294   -0.61479500    0.77556500
Ge    0.01979000    8.98237000   12.38092000     -0.021008    0.08678100   -0.31625100
Ge   23.04885000   14.53379000    2.26916000     -0.330058   -0.33492900    0.48000700
Ge   22.93384000   14.86704000   12.40352000     -0.447364   -1.45150800   -0.42762800
Ge    0.04840000   20.44358000    2.55945000     -0.087229   -0.42189800   -1.10346200
Ge   22.91075000   20.54177000   12.64698000      1.915228   -0.13790700   -0.75933400
Se    1.65669000    1.53302000    1.45432000     -0.078554   -0.95909700   -0.85839800
Se    1.08214000    1.94085000   10.93968000      1.069267   -0.20871000   -0.20220300
Se    1.39966000    6.83651000    1.37518000      0.695082    0.26300600    0.06377200
Se    1.24178000    7.23750000   11.24232000      0.597978    0.36136700   -0.38375000
Se    1.37970000   13.16998000    1.14551000      0.140963   -0.36017400   -0.02951500
Se    1.07539000   13.21891000   11.12883000      0.573198    0.47555500    0.52538800
Se    1.36261000   18.93991000    1.12982000     -0.362732   -0.01970300    0.09958000
Se    1.30517000   19.44290000   11.09925000     -1.060886   -0.78389000   -0.02486900
Se    7.42309000    1.16167000    1.36168000     -1.002652    0.33685300    0.21991400
Se    7.07658000    1.66896000   11.00410000      0.189389   -0.70443700   -0.39233000
Se    7.41400000    7.17877000    1.17489000     -0.470068    0.19441900    0.34510000
Se    7.25336000    7.03331000   10.89401000      0.507212   -0.05413500   -0.31942100
Se    7.41169000   13.09012000    1.23477000      1.587818   -0.15367100   -0.07786300
Se    7.10372000   13.31754000   10.73948000     -0.112321   -1.50647800   -0.70083100
Se    7.34502000   18.72905000    1.05693000     -0.639129    0.65750400    0.79902200
Se    7.50917000   18.48030000   11.03881000     -1.359506    0.44186500   -0.30457500
Se   13.02253000    1.47354000    1.37307000      0.255376   -0.64791900   -0.74697400
Se   13.23943000    1.73397000   10.86629000     -1.130703   -0.19846300   -0.07053300
Se   13.33768000    7.19390000    1.14363000     -1.430484   -0.04504900    0.11520000
Se   13.12175000    7.63510000   10.57294000     -0.154267   -0.41317400    0.01107000
Se   12.82787000   13.47789000    0.95264000      1.690362    0.10944400   -0.15086500
Se   13.24789000   12.76189000   11.09954000     -0.936928    0.92167200    0.00076100
Se   12.75515000   18.94711000    1.25771000      0.606797    0.38948400    0.28089200
Se   13.12996000   18.87207000   10.60549000     -0.939055    0.84575200    0.92864800
Se   18.74342000    1.51285000    1.18133000     -0.172186   -0.13508000   -0.23138200
Se   19.42683000    1.21471000   11.52153000     -0.637045    0.66320300    0.02840400
Se   18.86562000    7.09484000    1.04454000     -0.302861   -0.52066700   -0.23381900
Se   18.88785000    7.09846000   10.62886000      0.523022   -0.02799900    0.62541800
Se   18.58381000   13.05740000    1.25741000      0.678708   -1.82210000   -1.11349300
Se   19.07296000   13.29501000   10.97101000     -0.342205   -0.79120700   -0.30365400
Se   18.80539000   19.08336000    1.08343000      0.462135    0.96591700    0.85981700
Se   18.62272000   18.53442000   11.20994000      0.680217    0.80717100    0.60390500
Se    4.63820000    4.02751000    1.01776000     -0.587808   -0.03148500    0.47137700
Se    4.20285000    4.37198000   10.55374000     -1.097635   -0.11299300    0.60887900
Se    4.51481000   10.44071000    0.98977000     -0.462902   -1.09494900    1.06233200
Se    4.33130000   10.16609000   11.42646000      0.406598    0.32336400   -1.15769800
Se    4.17618000   15.89230000    1.44796000      1.008031    0.56841300   -0.88544000
Se    4.16138000   15.87231000   10.74259000      0.034141   -0.27725800    0.79102400
Se    4.25440000   21.54745000    1.53377000      0.067143    0.75499400   -0.79795200
Se    4.48011000   22.13462000   11.55471000     -0.466362   -1.25546800    0.02987100
Se   10.19646000    4.16191000    1.50284000     -0.986293    0.62571900   -0.38936300
Se   10.20896000    4.91162000   11.11592000     -0.158501   -0.05062800   -0.42804600
Se   10.18242000   10.25455000    1.03007000      0.596505   -0.17995400    0.19119200
Se   10.15755000   10.41508000   11.00365000      0.162624   -0.18317300   -0.37370000
Se   10.01067000   16.12914000    1.50430000     -0.748577   -0.53757300    0.24405600
Se   10.28092000   16.19180000   11.37286000     -0.206331   -0.48880100   -0.51652700
Se   10.31005000   21.89435000    1.31150000     -0.878326    0.42534500   -0.52304500
Se   10.12565000   21.88423000   10.81493000     -0.099438   -0.56350500    0.43305700
Se   15.69938000    3.97626000    0.77001000      0.481321    0.66983700    0.46563000
Se   16.08763000    4.15156000   11.03019000     -0.631119   -0.06156600    0.44217600
Se   15.65877000    9.78013000    0.79509000      0.549479    0.01513400    0.45335200
Se   16.31920000    9.92885000   10.64645000     -0.103867   -0.16404900    0.86720500
Se   16.13735000   16.21886000    0.79440000     -1.366384   -1.18467200    1.37275100
Se   15.95956000   15.67821000   10.76542000     -1.405031   -0.33008300    0.37002900
Se   15.74566000   21.98111000    1.24082000      0.786856    0.04650000   -0.71137700
Se   16.10724000   21.81026000   10.85991000     -0.634592    1.62872500   -1.18101000
Se   21.68676000    4.27558000    1.08229000     -0.158487   -0.18491100    0.12004300
Se   21.58962000    4.92623000   11.34406000     -0.618042   -1.01568900    0.37111500
Se   22.10146000    9.68990000    0.95124000     -0.621724    1.25241000   -0.33295200
Se   21.52677000   10.15935000   11.02145000      1.067915    0.09532600    0.24524200
Se   21.62183000   15.98950000    1.04943000      0.045726    0.51674100   -0.39420200
Se   21.62719000   16.55018000   11.32883000     -0.717393   -0.73012500    0.26837100
Se   21.74091000   21.82340000    1.30154000     -0.077743   -0.31025000    0.19795600
Se   21.61149000   21.84924000   11.15602000     -1.182082   -0.01963000    0.20189700
Se    1.47568000    4.78895000    8.62417000     -0.220702   -1.24329000    0.26607600
Se    1.05804000    4.52250000   18.25529000      0.561742   -1.00734100   -0.19019600
Se    1.16368000   10.05108000    8.71029000      0.628468   -0.27817600   -0.24874300
Se    1.56336000   10.24048000   18.27167000      0.190886   -0.17215900    0.07345000
Se    1.28170000   16.07718000    8.99691000      0.327568   -0.25321500   -0.54983600
Se    1.80809000   15.90572000   18.74508000     -0.602790    1.32285500   -0.62251900
Se    1.24094000   21.94169000    8.92860000      0.501685    0.55032600   -0.34565600
Se    1.31621000   21.83862000   18.21926000      0.294654   -0.46353600   -0.22065000
Se    7.53394000    4.20302000    8.78946000      0.527639    0.43733900   -1.03925800
Se    7.28041000    4.28653000   18.15987000      0.258445   -0.40184400   -0.16429600
Se    7.32751000   10.37183000    8.53898000     -0.183230   -0.76885600    0.01918000
Se    7.37319000    9.90632000   18.43156000      0.409754    0.81986600   -0.24591300
Se    7.28185000   15.79031000    8.74408000      1.176597   -0.75383000   -1.32624700
Se    7.17917000   15.70852000   18.33810000     -0.980705   -0.27474800    0.66103400
Se    6.93369000   21.86918000    8.53559000      1.127497   -1.27590500   -0.79648300
Se    7.35689000   21.68450000   18.62071000     -0.324898    0.67533000   -0.45973900
Se   12.89362000    4.30244000    8.52093000      0.393651    1.06963800   -0.68202200
Se   13.28098000    4.18091000   18.33454000     -0.548170    0.45566200    0.54081300
Se   13.10145000   10.12748000    8.39986000      0.121255    0.41916600   -0.06020200
Se   13.13555000   10.57089000   18.30869000      0.369068   -1.05384500   -0.39996200
Se   13.10866000   15.80467000    8.44640000     -0.215450    0.75101100    0.25245100
Se   13.11258000   16.26072000   18.48841000     -0.787896   -0.22786800    0.23944000
Se   13.26500000   22.02652000    8.67038000     -0.514523   -1.20787000    0.43027400
Se   13.22634000   21.99601000   18.07528000     -0.293361   -0.96273400    0.65616300
Se   18.62664000    4.30012000    8.24988000      0.704536   -0.47188200    0.03904900
Se   19.01183000    4.20474000   18.29370000     -0.030438    0.15480200   -0.03206600
Se   19.28061000   10.04451000    8.67145000      0.146237    0.84134600   -0.34488600
Se   19.21375000   10.41968000   18.98109000     -0.989074   -0.67560300   -0.03834600
Se   19.00105000   15.84236000    8.58633000      0.359766   -0.27441400   -0.44235500
Se   18.98696000   16.03165000   18.42050000      1.233524    0.16299500   -0.97750500
Se   19.17857000   21.97484000    8.40602000     -0.649722   -0.97645300    0.97586000
Se   19.25928000   21.80050000   18.58648000     -0.094283    0.07359900   -0.50023900
Se    4.30710000    1.55468000    8.63902000     -0.303245   -1.24171000   -0.14455800
Se    4.27606000    1.20825000   18.40460000     -0.245492    0.70636300   -0.50810300
Se    4.80977000    7.31309000    8.17041000      0.381557   -0.15025300    0.58510300
Se    4.30818000    7.12761000   18.72128000     -0.390058   -0.26795100   -0.79526600
Se    4.01383000   13.07950000    8.68085000     -0.110389   -0.27181700   -0.11799100
Se    4.52940000   13.17386000   18.41668000      0.465498   -0.24637700    0.14799500
Se    4.43987000   18.72747000    8.64519000     -0.360142    0.54281500   -0.37275000
Se    4.58865000   19.01945000   18.17608000      0.244794   -0.45429400    0.41009800
Se   10.33892000    1.43061000    8.31146000     -0.439032   -0.08945500    0.13588600
Se   10.07086000    1.47426000   18.40889000      0.059854   -0.50425300   -0.44139600
Se    9.98251000    7.61340000    8.12468000      1.585049    0.05978700    1.40450600
Se   10.39301000    6.99034000   18.23136000     -0.468110    0.20990900   -0.03113900
Se   10.25655000   13.29330000    8.20757000      0.452766   -0.71423400    0.68345400
Se    9.99923000   13.16558000   18.12295000      0.655906    0.90431100    0.56850900
Se   10.16359000   18.73781000    8.31364000      0.136660    0.15389900    0.28455100
Se    9.79265000   18.80842000   18.28993000      0.298763   -0.19124300   -0.05779000
Se   16.33598000    1.52049000    9.00986000     -0.078684   -0.12000800   -0.20010400
Se   16.32870000    1.45311000   17.76122000     -0.351056    0.66835600   -0.12573700
Se   15.82331000    7.11196000    8.47936000      0.167400   -0.74103800    0.05351500
Se   16.29612000    7.24834000   18.10541000     -0.716002    0.42238000   -0.54506700
Se   16.13085000   12.96289000    8.70487000     -0.246041    0.10223200   -0.27482000
Se   15.97429000   13.18446000   18.15583000      0.191423    0.52208700    0.26167900
Se   16.07013000   18.85943000    8.83981000     -0.069492   -0.72683800   -0.39089400
Se   16.14810000   18.91669000   17.98796000     -0.508914    0.56571300   -0.28325600
Se   21.88000000    1.60316000    8.54887000     -0.930604    0.41670800   -1.05740100
Se   21.87197000    1.59314000   18.55032000     -0.072407   -0.77208300   -0.48774000
Se   21.84874000    7.48730000    8.38839000     -0.838491   -0.81454500   -0.23746400
Se   21.76921000    7.45316000   18.14755000     -0.369260    0.23267400    0.09411000
Se   21.82305000   13.23969000    8.55578000      0.235233   -0.83647600   -0.12842600
Se   21.69983000   13.00054000   18.35353000      0.386687    0.90656200    0.03458700
Se   21.73673000   18.86976000    8.33107000     -0.383262   -0.32150500   -0.18915200
Se   22.27854000   18.85782000   17.46397000     -0.418322    0.37900600    0.13129000
Se    1.38396000    1.40047000    6.10841000      0.206221    0.06392200   -0.35434300
Se    1.59843000    1.55479000   16.12362000      0.142418    0.24677800   -0.27116500
Se    1.56714000    7.51246000    6.43910000     -0.187491   -0.76535500   -0.57274600
Se    1.57676000    7.39332000   15.96207000      0.253770    0.08341800   -0.08693700
Se    1.22016000   12.83144000    6.02365000     -0.061882    0.24509200   -0.35359800
Se    1.64206000   12.97308000   16.03157000      0.003829    0.20476500   -0.04733500
Se    1.27730000   19.00706000    6.26937000     -0.083285   -0.58742800    0.34388900
Se    1.96139000   18.73729000   15.87364000     -1.457855   -0.10546700    0.29166400
Se    7.16971000    1.21332000    6.10941000      0.306767    0.52508200   -0.35090400
Se    7.36800000    1.49758000   15.68765000     -1.522353   -0.32072100    0.15137800
Se    7.35214000    7.30490000    5.90596000     -0.987200   -0.68366300    0.33893800
Se    7.09006000    7.35694000   15.93320000      0.708497    0.00934600   -0.53509300
Se    7.50668000   12.85277000    5.74340000     -1.607469   -0.03341300   -0.18284300
Se    7.15634000   12.63586000   15.78616000      0.373264    0.31419700   -0.04181800
Se    6.90158000   18.39476000    5.88838000      0.660370    1.01679700   -0.25114300
Se    7.03812000   18.80708000   15.80711000      0.795583   -0.02204800   -0.03761400
Se   13.14427000    1.63447000    6.27447000      0.627574   -0.25516700    0.77696200
Se   12.67807000    1.59868000   15.58865000      0.556501   -0.42472200    0.83432200
Se   13.34946000    7.39593000    5.98045000     -0.006394    0.48756500   -0.39179300
Se   12.78860000    7.36224000   15.91315000      1.509788   -0.26623500    0.18051300
Se   13.51308000   13.40602000    6.63335000     -1.723524    0.30814300   -0.62123300
Se   12.92167000   13.09140000   15.66661000      0.429734    0.27170100   -0.22642500
Se   13.20324000   19.01700000    6.22183000     -0.027658   -0.90442000    0.66534200
Se   13.01240000   19.36766000   15.89984000     -1.087227   -0.25073200    0.34573500
Se   18.84486000    1.56782000    5.95332000      0.353449    0.24350300   -0.48134600
Se   19.23920000    1.46810000   16.20031000     -1.398455    0.40683100   -0.71607700
Se   18.75543000    7.15342000    5.89637000      0.975476    0.25602600    0.25422600
Se   18.91229000    7.39932000   16.02296000     -0.485110   -0.05097100   -0.15876700
Se   18.92852000   12.71061000    6.31410000     -1.317691    1.50412100   -1.50246200
Se   18.49383000   12.89755000   16.17574000     -0.223455    0.90282500   -0.69250500
Se   18.76692000   19.06600000    5.97928000      0.442421   -0.44358600   -0.06527600
Se   18.43270000   19.15475000   15.94303000      1.417340   -0.92198000    0.55860200
Se    4.44602000    4.10998000    6.20691000     -0.550133    0.49340500    0.06847200
Se    4.44961000    4.55332000   15.85021000      0.258789    0.12980700    0.77218600
Se    4.15886000   10.02202000    6.64121000      1.212254    0.54552300   -0.38185200
Se    4.65790000    9.97258000   16.05707000     -0.525666    0.06874200   -0.36999800
Se    4.14656000   15.77844000    6.28831000     -0.941817   -0.08109000   -0.31172500
Se    4.56647000   15.87586000   15.93015000      0.083686   -0.10333300   -0.06514500
Se    4.14383000   21.52561000    6.30570000      1.128288    1.24801000    0.93283700
Se    4.77471000   21.60228000   15.65946000     -0.987682    0.62980200    0.39164400
Se   10.13329000    4.28806000    6.42440000      0.426116   -0.85585700   -1.04419900
Se   10.05118000    4.27176000   15.82496000      0.152488    0.34044600   -0.48481200
Se   10.30177000   10.10877000    6.11469000      0.128728    0.07782700   -0.20460700
Se   10.05362000    9.91781000   15.98579000      0.978661    0.04147800   -0.01256000
Se   10.02594000   15.92586000    6.02026000      0.109552    0.21291300    0.05041600
Se    9.86007000   15.89980000   15.67897000      0.253984    0.77332800    0.78713500
Se    9.96886000   21.49372000    6.16965000      0.053623   -0.03407500    0.33229900
Se   10.01470000   21.78042000   15.80724000      0.233910    0.32789800    0.38831900
Se   16.40093000    4.28230000    5.76045000     -1.331708   -0.12671400    0.06899100
Se   15.91019000    4.36242000   15.74415000     -0.420852    0.44150000    0.67867100
Se   16.28621000   10.59920000    5.81654000      0.152307   -0.27830200    0.10344600
Se   15.85688000   10.09117000   15.74267000      1.005754    1.06485800    1.08166800
Se   16.38639000   15.89899000    6.48530000     -1.423039    0.54809300   -0.45190400
Se   15.68794000   15.97999000   15.85392000     -0.068599    0.54444600    0.28933200
Se   16.18324000   21.93426000    6.39992000     -0.792766   -0.20641000   -0.32638000
Se   15.72262000   22.27006000   15.43452000      0.461500   -0.55137200   -0.01725800
Se   21.74436000    4.34786000    6.04146000      0.335586   -0.08398000   -0.10887500
Se   21.95034000    4.43570000   16.04378000     -0.608401    0.19946200   -0.29683000
Se   21.96818000   10.25509000    5.77947000     -0.324122   -0.57080000   -0.18455900
Se   21.70283000   10.48619000   15.82805000     -0.209784   -0.26113000    0.16558100
Se   21.55766000   15.77424000    5.98276000      0.506837    0.35037100    0.05420600
Se   21.49231000   15.97681000   15.71459000      1.001260   -1.02255500   -0.64669300
Se   21.73644000   21.73918000    6.20423000      0.498386   -0.13606200   -0.55574600
Se   21.78421000   21.83031000   15.42087000     -0.168429    0.04526400    0.71052100
Se    4.64612000    1.40127000    3.69650000     -0.569878   -0.94948000    0.33700100
Se    4.00599000    1.55977000   13.27667000      0.328142    0.07784000    0.11305900
Se    4.46799000    7.43367000    3.63258000      0.939066   -1.81236100   -0.28313700
Se    4.52782000    7.00637000   13.55821000      0.231027    0.67335300   -0.41329400
Se    4.32263000   13.00942000    3.44601000     -0.463261   -0.86163900    0.50186500
Se    4.19174000   13.01063000   13.37699000     -0.898785    0.13431700    0.83250200
Se    4.20690000   18.89239000    3.96279000      0.325992    0.70502200   -0.50525200
Se    4.34447000   18.57073000   13.32920000      1.265608   -0.04015700   -1.54175300
Se   10.61838000    1.43620000    4.33302000     -1.060103   -0.83838300    0.37394200
Se   10.11887000    1.69428000   13.21856000      0.266990   -0.80843200   -0.60686600
Se   10.59689000    7.27715000    3.61524000     -0.094209    0.11696800   -0.04122000
Se   10.34839000    7.36056000   13.52623000      0.946290   -0.44803600   -0.49036000
Se   10.51964000   13.19298000    3.65750000     -1.561875   -1.73806600    1.30173000
Se    9.95723000   12.79598000   13.65607000      0.733585    0.57000400   -0.61363600
Se   10.40690000   18.93576000    3.88448000     -0.749201   -1.26164500    0.44060200
Se   10.41749000   18.50977000   13.61645000     -0.770519   -0.46989800    0.13645000
Se   15.92901000    1.05430000    3.71090000      0.405459    0.76007000   -0.37588300
Se   15.79947000    1.35509000   13.14245000      0.372564    0.56977300    0.13027900
Se   15.92122000    7.25569000    3.47298000      0.202467    0.68568200    0.34087300
Se   15.92059000    7.11383000   13.51443000     -0.207152    0.27932600    0.01317700
Se   15.56136000   13.50105000    3.27612000      0.413723   -0.17748300    0.09468300
Se   15.75000000   12.75860000   13.28893000      0.785991    0.75990900   -0.17351700
Se   15.63770000   18.80186000    3.37909000      0.283274    1.00171800    0.37783400
Se   15.41604000   18.84712000   13.12292000     -0.432842   -0.43099700    0.59874500
Se   21.95173000    1.54953000    3.61694000     -0.301786    0.48144200   -0.33858100
Se   22.11191000    1.75061000   13.50845000     -0.959852   -0.53304900    0.55135300
Se   21.83381000    7.26237000    3.39066000      0.058505    0.08531700    0.69688100
Se   22.31590000    7.33098000   13.79810000     -1.053888    0.70779300    0.59754000
Se   21.40113000   12.96999000    3.21060000      0.107361    0.82067600    0.42320400
Se   21.43174000   13.22130000   13.31925000      0.175979   -0.06769900    0.53739700
Se   22.12009000   18.87015000    3.89969000     -0.473699    0.03674000   -0.10720400
Se   21.64028000   18.86639000   13.64455000     -0.369093    0.03298900    0.14006700
Se    1.40107000    4.34291000    3.88468000      0.766893   -0.14630400    0.04986000
Se    1.56246000    4.63801000   13.91618000     -0.865696    0.50227100   -1.07208400
Se    2.10626000    9.90353000    3.36676000     -0.934695    1.16403500   -0.22055600
Se    1.91700000   10.32454000   13.41278000     -1.061781    0.21472100   -0.51593500
Se    1.23935000   15.74286000    3.80193000     -0.679704    1.00345600   -0.53453200
Se    1.01207000   15.98268000   13.96555000      0.799344    0.89488700    0.09927100
Se    1.34776000   22.10972000    3.53352000      0.697251   -0.51642700    0.91507600
Se    1.57410000   21.75490000   13.72824000     -0.197679   -0.18462700   -0.03017000
Se    7.31086000    4.33162000    4.00555000     -0.344474    0.18989300   -0.91369700
Se    7.18720000    4.40066000   12.99263000     -0.101194    0.36717800    0.74971700
Se    7.59706000   10.05048000    3.42757000     -0.089844   -0.24038500    0.18585400
Se    7.68291000    9.97017000   12.73559000     -0.415107   -0.07823900    0.89409800
Se    7.02350000   15.89026000    3.52203000      0.959781    0.11486500    0.67705100
Se    7.05568000   15.66125000   13.21819000      0.476357    1.20712300    0.56874800
Se    7.53801000   21.60977000    3.42542000      0.299228    0.65284800    0.45368200
Se    7.46056000   21.39931000   13.17431000      0.605339    0.42384000    0.81140000
Se   13.37325000    4.17016000    3.63128000     -1.039786    0.42205500   -0.73776700
Se   12.76860000    4.28275000   13.48370000      2.312631    1.35309700    1.72978500
Se   13.42813000   10.42365000    3.46926000     -0.862849   -0.21570000   -0.16025100
Se   13.29082000   10.27524000   13.20357000     -0.488045    0.59332000   -0.48159600
Se   13.12620000   16.32139000    3.76466000     -0.115071   -0.80855300    0.25511100
Se   13.12045000   15.82004000   13.08050000     -0.314470    0.53196800    0.05556400
Se   12.88361000   21.88747000    4.28038000      0.420411   -0.24565400   -0.53984300
Se   12.42097000   21.76021000   13.44540000      1.202267    0.16868300    0.27637900
Se   18.80923000    4.44782000    3.53723000     -0.925656   -0.15365600   -0.63212500
Se   18.53566000    4.00946000   14.05513000      0.137720    1.14739700   -0.12134700
Se   19.24914000   10.04453000    3.04778000     -0.889373   -0.20949300    0.47484600
Se   19.14326000    9.80829000   13.26025000     -0.881731    0.26307000   -0.56318600
Se   18.60418000   15.88607000    3.77042000      0.556486    1.30810200    0.61669200
Se   18.66435000   15.86411000   13.36226000      0.061732   -0.13056200    0.94507600
Se   18.86233000   21.76952000    3.53646000      0.038214    0.05567200   -0.06479500
Se   18.46031000   21.59375000   13.38181000     -0.063660   -0.16302500   -0.28592200
