384
23.23808000 23.23808000 19.51320000
Ge    5.90650000    5.62384000    9.67627000      0.033739   -0.82572800    0.31473000
Ge    6.05028000    5.73419000   19.43915000     -0.095553   -0.22242300    0.99249100
Ge    5.61485000   11.45654000    9.63117000     -0.388330    0.66351200    0.14281700
Ge    5.98916000   11.58883000   19.32778000      0.606580   -0.47686500    1.49597400
Ge    5.86696000   17.07746000    9.79033000      0.754566    1.11456500   -0.39864500
Ge    5.66756000   17.39621000    0.06236000      0.255322    0.53483700   -0.33443200
Ge    5.77666000    0.01179000    9.83912000      0.258728   -1.56164600   -0.24615700
Ge    5.59362000   23.19019000    0.34857000     -0.056858   -0.29985300   -1.08666600
Ge   11.80704000    6.14798000    9.57015000     -3.039594   -0.24589000   -0.70907300
Ge   11.79818000    5.49450000    0.26970000     -1.212540    0.47657000    0.03588200
Ge   11.74261000   11.80244000    9.63840000      0.279820   -1.09832400   -0.09219300
Ge   11.45845000   11.86591000   19.28851000      0.665383   -0.24314800   -0.17367300
Ge   11.60203000   17.25828000    9.60290000     -0.649960    1.02351100    0.60801700
Ge   11.36951000   17.34529000    0.13330000      0.208699    0.20340300    0.18749700
Ge   11.71284000    0.14898000    9.86546000     -0.110312   -1.20992000    0.04867500
Ge   11.78166000   23.14725000   19.41495000     -0.132621    0.27912300   -0.48675300
Ge   17.17772000    5.74624000    9.59668000      1.907834   -0.90667300    1.60994800
Ge   17.29296000    5.67558000   19.42349000     -0.358891   -0.75855700   -0.32521600
Ge   17.75192000   11.67895000    9.73879000     -0.242733    0.13120400    0.38667900
Ge   17.17380000   11.53929000    0.15042000      0.124371   -0.40037600   -0.81304300
Ge   17.43379000   17.35598000    9.69873000     -0.509568   -1.52219100    0.13854300
Ge   17.51130000   17.70096000   19.40826000     -0.582777   -0.69881200    0.44075900
Ge   17.93102000   23.15745000    9.87660000     -1.153609    0.71936800    0.55407000
Ge   17.39457000   23.11604000   19.32264000      0.828840    0.69596000   -1.21222100
Ge   23.07451000    6.12025000    9.74508000      0.170701   -1.35992400    0.25513800
Ge   23.05645000    5.94246000    0.12815000     -0.019510   -0.19795500   -1.13813300
Ge   23.05039000   11.75845000    9.95155000      1.323864   -1.12327000    1.45480300
Ge   23.13706000   11.70116000   19.41891000      1.259628   -0.20858800   -0.33799100
Ge   23.18162000   17.74165000    9.92823000     -0.376389   -0.72074100    0.08832000
Ge   23.00416000   17.41590000   19.32156000      0.211387   -0.21888800    0.19284600
Ge   23.07511000    0.11351000   10.05781000      0.291343    0.25552700   -0.11838100
Ge    0.08119000    0.08704000    0.04825000     -0.120689   -1.03363200    0.42785700
Ge    3.09892000    5.87192000    7.22447000      0.160257   -0.56065500    0.69212100
Ge    2.98099000    5.77643000   17.13417000     -0.809576    0.11777600    1.18355500
Ge    2.46598000   11.58855000    7.55813000      1.692020    0.26504100   -1.33473700
Ge    3.19153000   11.57811000   17.08553000     -0.361786    0.35480400    0.27811700
Ge    2.78726000   17.41511000    7.55582000     -0.223336    0.70542500    0.73180500
Ge    3.06512000   17.22539000   17.34543000      0.826117    0.57876400   -1.68370100
Ge    2.88327000   23.18097000    7.47611000     -0.543280    1.53899400    0.58585300
Ge    3.10591000   22.90742000   16.91488000     -0.114383    0.61595200    0.12113600
Ge    8.65411000    5.93603000    7.31209000      0.573072   -1.11632200    0.55418100
Ge    8.75841000    5.83950000   17.04929000     -0.298018    0.19995800   -0.71749100
Ge    8.86312000   11.63082000    7.20670000     -0.715757    0.56928700   -0.60709600
Ge    8.70287000   11.37030000   17.16886000      1.043233    1.52571300   -1.34137600
Ge    8.53467000   17.30289000    7.34289000      0.417227    0.35840600   -0.39454500
Ge    8.42389000   17.27973000   17.16154000     -0.015260   -0.27864100   -0.23772800
Ge    8.67629000   23.11493000    7.17881000     -0.750877    0.44719300    0.61164200
Ge    8.68912000   23.15582000   17.19204000     -0.747550    1.73229900   -0.38746000
Ge   14.63050000    5.58666000    6.92850000      0.202073    0.21695500    0.71895400
Ge   14.40890000    5.88143000   17.00926000      0.186304   -0.52416400    0.53559300
Ge   14.73955000   11.43594000    7.33304000      0.367006    1.28849900   -1.06524700
Ge   14.57351000   11.72107000   16.84297000      0.012545   -0.47892700    0.59030500
Ge   14.58011000   17.62441000    7.40589000     -0.697585   -0.77083300   -0.18135400
Ge   14.47932000   17.77809000   17.08641000     -2.399345    0.19519300    0.92262400
Ge   14.43675000    0.28968000    7.70665000      2.540001   -1.27910500    0.49298000
Ge   14.40094000    0.32899000   16.75825000     -0.196183   -1.22555100    0.07917100
Ge   20.27824000    5.85545000    7.21611000      0.880392   -0.44581200    0.04392100
Ge   20.28216000    5.93821000   17.08508000      0.525747    0.05844200   -0.29675900
Ge   20.68468000   11.50965000    7.34490000     -0.174754    0.73052900   -1.50757700
Ge   20.22399000   11.66419000   17.16029000     -0.811258    0.02861500    0.15665500
Ge   20.23528000   17.27285000    7.23500000      0.126657    0.16260700   -0.08604300
Ge   20.15042000   17.44866000   16.90261000      1.089454   -0.02345300    0.46081700
Ge   20.60960000    0.42302000    7.09517000     -1.124325   -0.91825200    0.55662400
Ge   20.76641000   23.11892000   17.16516000     -0.864215    0.98645100   -0.67415600
Ge    2.88735000    2.64972000    4.97874000      1.503448    0.37123200   -0.17214800
Ge    2.81384000    2.97250000   14.85057000      0.906515    1.15292700   -0.24983600
Ge    3.08963000    8.72581000    5.01915000      0.072712    0.18966700   -0.41606900
Ge    3.33618000    8.64737000   14.62492000     -1.725977   -0.72210000   -0.46958800
Ge    2.82001000   14.31079000    4.79054000      0.060380    0.04153100    0.13484700
Ge    2.73283000   14.49110000   14.69694000      0.575523    2.00349600    0.55631500
Ge    2.68029000   20.37567000    4.98788000      0.559740    1.55010000    0.54072000
Ge    3.12579000   20.13372000   14.60962000      1.130534   -1.08660200   -0.39695700
Ge    8.72748000    2.66111000    5.11951000      0.565692    1.58914200   -0.05982900
Ge    8.67742000    2.93181000   14.31521000     -0.512359   -0.46072600    1.00451800
Ge    9.00929000    8.69172000    4.78274000     -0.552961   -1.09578500    0.08372300
Ge    8.61756000    8.72547000   14.32565000     -0.280930   -0.74140300    1.47405300
Ge    8.75587000   14.55048000    4.49733000     -0.557463    0.04171100    1.80526200
Ge    8.38350000   14.32060000   14.62240000      0.157049    0.18621300   -0.06994400
Ge    8.52470000   19.91458000    4.72723000     -0.358569    0.43704900    0.21688600
Ge    8.84355000   19.84420000   14.74418000      1.309367    0.98066000   -0.74943800
Ge   14.76644000    2.75369000    4.86836000     -0.540590    0.14333500   -0.64166900
Ge   14.39307000    2.90718000   14.62951000      0.480338   -0.14893900   -0.79666500
Ge   14.73125000    8.90244000    4.97605000      0.501890    0.69328500   -1.36107100
Ge   14.32384000    8.81445000   14.56974000      0.218918    0.11679300    0.39908600
Ge   14.60664000   14.77628000    4.99773000     -0.081190   -0.86604300    0.44890100
Ge   14.50167000   14.60312000   14.49227000      0.060334    0.23611100   -0.02483300
Ge   14.72120000   20.56443000    5.02742000     -1.192050   -0.23193700    0.90487800
Ge   14.34365000   20.48533000   14.40315000     -1.049181    0.51001500   -0.20583700
Ge   20.30764000    2.84116000    4.54195000      1.547820    1.22104800    0.42751600
Ge   20.51472000    2.95630000   14.94088000     -1.793410   -0.95341600   -1.12357100
Ge   20.31714000    8.76535000    4.68686000      0.950028   -0.32206100   -0.14356200
Ge   20.60101000    8.77088000   14.57968000     -1.613193   -0.14296300    0.85176100
Ge   20.04018000   14.37390000    4.69366000      0.820509   -0.28599200    0.39712400
Ge   20.02215000   14.52412000   14.77043000     -0.000684   -0.83494300    0.35875800
Ge   20.36822000   20.33678000    4.80825000     -0.130896    0.18653900    0.20082400
Ge   19.96682000   20.40959000   14.69467000      1.958711   -0.21179300   -0.15990800
Ge    6.08534000    2.85244000    2.56914000     -1.479016    0.00362700   -0.04925300
Ge    5.51919000    2.85907000   12.11819000      0.407891    0.34890300   -1.04637100
Ge    5.91203000    8.71317000    2.09841000     -0.216034    0.47974500    1.11412200
Ge    5.72694000    8.55046000   12.04251000      1.314674   -1.12386200   -0.02821300
Ge    5.68812000   14.33657000    2.30361000      1.200234    0.16070100    0.67088200
Ge    5.52632000   14.35412000   11.96150000      1.369384   -0.42113100    0.90054900
Ge    5.74481000   20.20941000    2.51052000     -0.447500    0.85953000   -0.06510600
Ge    5.77673000   20.06611000   11.99541000      0.515949   -0.32845200    0.90935500
Ge   11.67604000    2.68225000    2.67198000     -0.006226    0.24607300   -0.25670400
Ge   11.56018000    3.04086000   11.79632000     -0.116896    1.48174100    1.37001900
Ge   11.78807000    8.91825000    2.21338000      0.022458    0.22960300    1.46900900
Ge   11.62550000    8.82539000   12.02783000      0.440882    0.03169200    1.34493200
Ge   11.69288000   14.79906000    2.37999000      0.196890   -1.01643900    1.08046700
Ge   11.47138000   14.22679000   12.24378000      0.900633    0.64413600    0.10729600
Ge   11.58760000   20.47303000    2.63821000     -1.271109    0.70961200   -0.20812600
Ge   11.43170000   20.19987000   11.98662000     -1.129736    0.55690500    0.76394800
Ge   17.30331000    2.73915000    2.42895000     -0.643735    0.36976900   -0.83280700
Ge   17.68039000    2.69436000   12.15856000     -0.441058    1.47574800    0.85689100
Ge   17.37058000    8.62615000    2.29372000      1.523848    1.04410800   -0.74719500
Ge   17.43797000    8.34546000   12.12713000      0.173479    1.09084600    0.30328300
Ge   17.17900000   14.67299000    2.33816000      0.529237   -0.64661800    0.57757800
Ge   17.29997000   14.39991000   12.17413000     -0.326051   -0.16996400   -0.55253100
Ge   17.16178000   20.40982000    2.46868000      0.780354   -0.16705300    0.25247500
Ge   17.21680000   20.15340000   12.21599000      0.065168    0.50533000   -0.66791200
Ge    0.36781000    3.10534000    2.34609000     -0.835457   -0.85447800   -0.24566800
Ge   23.16084000    3.50338000   12.47658000     -0.744278   -0.31667700   -0.44249200
Ge    0.48668000    8.70103000    2.42835000     -1.514353    0.64754200    0.12236400
Ge    0.00203000    9.08784000   12.21598000      1.234916   -0.34287900    0.19881700
Ge   22.99693000   14.48507000    2.24934000      0.613698    1.56998700    0.13285300
Ge   22.87198000   14.78611000   12.33697000      0.364430   -0.01436100    0.98477000
Ge   23.21751000   20.51888000    2.41230000     -0.231401   -0.44296200    0.34130800
Ge   23.17308000   20.42483000   12.56055000     -1.673966    0.38006700    0.91376400
Se    1.62258000    1.45788000    1.14672000      0.680506    0.26914300    0.60284200
Se    1.14872000    1.85274000   11.16723000      0.318919   -0.15604800   -0.35311500
Se    1.47422000    6.82553000    1.53558000      1.104556   -0.39135000   -0.35295400
Se    1.26951000    7.24051000   11.15764000      0.843397    1.10339700    0.14102400
Se    1.37302000   13.21158000    1.04709000     -0.209056   -0.03585700    0.11203700
Se    1.22923000   13.26780000   11.41199000     -0.411387   -0.64190600   -0.75772700
Se    1.14738000   18.91865000    1.07971000      0.734591   -0.02155800    0.11816700
Se    1.22549000   19.36930000   11.07781000      1.848155   -1.24241900   -1.14004700
Se    7.27549000    1.21557000    1.48682000      0.783046   -0.61351800   -0.33112000
Se    7.11772000    1.51452000   10.92971000      0.990632    0.62520400    0.54034400
Se    7.53577000    7.29329000    1.16472000     -0.413005   -0.67590700   -0.48685900
Se    7.34363000    7.09807000   10.86366000     -0.848056    0.48506400    0.27021300
Se    7.29984000   13.06256000    1.13658000      0.667921    0.07899200    0.17059700
Se    7.13743000   13.06069000   10.67605000     -0.877002   -0.12670600    0.37773700
Se    7.19885000   18.86914000    1.15454000     -0.026493    0.13484900    0.29497100
Se    7.44127000   18.44196000   10.99951000     -1.058772    0.74602100    0.06952100
Se   13.15690000    1.23244000    1.31260000     -0.114805    0.61905100    0.38466200
Se   13.21629000    1.58883000   11.02100000      0.117691   -0.14432400   -0.44607600
Se   13.15171000    7.37796000    1.12630000      0.495588   -0.88810500   -0.49297800
Se   13.11031000    7.56019000   10.70399000      1.724838    0.88492300    0.86176600
Se   12.92670000   13.38278000    0.84218000      0.486535    0.04514000    0.36477700
Se   13.13727000   12.91210000   11.17247000      0.245329    0.30165900   -0.40927700
Se   12.77748000   19.01441000    1.32785000      1.021458   -1.05095800   -0.93300300
Se   12.94414000   18.96961000   10.79030000      0.677332   -0.73785200   -0.89306800
Se   18.71072000    1.41438000    1.07023000      0.705780    0.03023500   -0.00653900
Se   19.34375000    1.26537000   11.42666000      0.172514   -0.51508200   -0.71577700
Se   18.78813000    7.17858000    0.94805000     -0.117263    0.05998400    0.65033500
Se   18.94467000    7.09236000   10.85667000     -0.746837   -0.70952400   -0.54828800
Se   18.57091000   13.07288000    1.19682000      0.467044    0.34756200    0.54327600
Se   19.04292000   13.27601000   10.96934000     -0.215540   -0.41897000   -0.02052100
Se   18.78909000   19.29010000    1.12246000      0.006324   -0.54257300    0.10797600
Se   18.76708000   18.52942000   11.23672000      0.213813    0.64784600    0.24972400
Se    4.63528000    4.06303000    1.12577000      0.210622    0.59290800   -0.08137200
Se    4.14720000    4.21121000   10.68924000      0.515065    0.61362200    0.17621500
Se    4.43982000   10.40633000    1.12037000      0.368354   -0.94332700    0.33726400
Se    4.18117000   10.03344000   11.23266000     -0.137748    1.16276400   -1.13646200
Se    4.37180000   16.08255000    1.58075000     -1.336549    0.67353400   -0.51852300
Se    4.22298000   15.92554000   10.92812000     -1.123398    0.07959200   -0.15365100
Se    4.04514000   21.67381000    1.45293000      1.205450   -0.13985600   -0.03972100
Se    4.43665000   22.13559000   11.50454000      0.449647   -1.14999800   -0.43169000
Se   10.02699000    4.09132000    1.42474000      1.381393    0.06260400    0.15467400
Se   10.15158000    5.00373000   11.25265000      1.383840   -0.62160000   -0.88181900
Se   10.25037000   10.19153000    0.91423000     -0.589567   -0.05582200    0.37836800
Se   10.28555000   10.40490000   11.03600000     -0.942449    0.56610700   -1.18645900
Se    9.89352000   15.96064000    1.49393000      0.095197    0.54720200   -0.55734100
Se   10.33642000   16.08045000   11.37193000     -0.879504    0.36325500   -0.88493700
Se   10.19991000   21.95597000    1.12979000     -0.014910   -0.83424900    0.96663600
Se   10.08443000   21.85566000   10.70583000     -0.150097   -0.50560000    0.47077600
Se   15.71338000    3.96241000    0.87675000      1.075579    0.55876800    0.51401700
Se   16.04506000    4.14137000   11.01608000      0.630287    0.32232600   -0.13733300
Se   15.80767000    9.77105000    0.86986000     -0.085877    0.35246100    0.30719800
Se   16.29415000   10.07592000   10.80210000     -0.117635   -0.11365800    0.23130000
Se   15.96127000   15.98005000    0.90842000     -0.495073    1.33473200   -0.44923100
Se   15.81996000   15.66492000   10.74509000      0.743327    0.68115300   -0.00371700
Se   15.91973000   21.94158000    1.14891000     -1.131974   -0.46854300    0.21683000
Se   16.10569000   21.88410000   10.86247000      0.669643   -0.45312100    0.24237200
Se   21.83411000    4.17434000    1.18881000     -0.346855    0.24531500    0.00649500
Se   21.53622000    5.06178000   11.34078000      0.517841   -0.92088900   -0.24989100
Se   22.12199000    9.84379000    0.87874000     -0.062173   -0.31366900    0.83561800
Se   21.52520000   10.24961000   11.14516000      0.315866    0.36815300   -0.18945000
Se   21.41370000   16.12058000    1.19173000      1.124868   -0.16480100   -0.28701700
Se   21.60062000   16.40083000   11.18892000     -0.014322   -0.00856600   -0.26398400
Se   21.65148000   21.87738000    1.32609000      0.609945    0.43806100   -0.46269200
Se   21.69331000   21.72872000   11.15024000     -0.269392    0.41999900    0.13726500
Se    1.53554000    4.61510000    8.66606000     -0.326646    0.15235000    0.11772700
Se    1.12677000    4.31048000   18.36710000      1.066329    1.04758400   -0.42305700
Se    1.21393000   10.13317000    8.77233000     -0.739995   -0.38440400    0.80545400
Se    1.50078000   10.32911000   18.15147000     -0.293045   -0.41507800    0.40450900
Se    1.38042000   16.04859000    9.01975000     -0.018018    0.55970400   -0.39390900
Se    1.77080000   15.92740000   18.64653000     -1.694492   -0.43797600    0.78122200
Se    1.33417000   21.99073000    8.76260000     -0.323697   -0.71806500    0.42060500
Se    1.58232000   21.76238000   18.48451000     -0.285524   -0.42298700   -0.52465000
Se    7.68293000    4.24053000    8.85463000     -0.317946    0.51374400   -0.73041200
Se    7.27557000    4.31704000   18.05093000      0.057415   -0.58632900    0.10291500
Se    7.39425000   10.31260000    8.51156000     -0.096593   -1.04540100    0.12245200
Se    7.27846000   10.04020000   18.26359000     -0.598109   -1.82291100    0.57154500
Se    7.48798000   15.70071000    8.70632000     -0.323347   -0.49394300   -0.08057800
Se    7.03103000   15.73396000   18.47874000      0.362386    0.63561200   -0.33729700
Se    7.07758000   21.81907000    8.32006000     -0.466124   -0.44754200    0.92688400
Se    7.26871000   21.91899000   18.47440000     -1.322935   -1.01626700    0.97047900
Se   12.92685000    4.47321000    8.37589000      0.416290   -0.57432900   -0.49650300
Se   13.21663000    4.26868000   18.39051000      0.361397   -0.47195300   -0.17273700
Se   13.27386000   10.15305000    8.47257000     -1.266418   -0.61844500    0.77873100
Se   13.10445000   10.40247000   18.17507000     -0.544636    0.07466100    0.16000500
Se   13.06985000   15.88249000    8.48741000      0.620375    0.09418500   -0.29597600
Se   13.13904000   16.07362000   18.60946000      0.106069    0.98452100   -0.53739100
Se   13.10431000   21.84868000    8.69365000      0.085387   -0.05176800   -0.07792000
Se   13.35539000   21.81394000   18.06195000     -0.542531    0.71254000    0.47669600
Se   18.59399000    4.45876000    8.17206000      0.327730   -0.30194100    0.18988600
Se   19.04269000    4.37722000   18.25155000     -0.708037   -0.50725600    0.58811300
Se   19.29959000   10.22886000    8.71573000      0.020076   -1.23247400   -0.10781800
Se   19.10598000   10.28582000   18.85519000      0.174184   -0.05262800   -0.72411800
Se   18.89580000   15.70887000    8.50891000     -0.217536    1.24139400    0.02940200
Se   18.91401000   16.04632000   18.47616000      0.240845    0.49282400   -0.67479200
Se   19.09610000   21.93662000    8.33728000      0.791680    0.27546100   -0.47630600
Se   19.37473000   21.75211000   18.47734000     -1.007035   -0.38648800    0.36051800
Se    4.24462000    1.38913000    8.88573000     -1.068077    0.81786800   -1.00083700
Se    4.18481000    1.27357000   18.35929000      0.651305    0.09996900    0.13781900
Se    4.84651000    7.19994000    8.28124000     -0.479761   -0.00504000   -0.21707300
Se    4.37545000    7.16891000   18.67841000     -0.581790    0.02901400   -0.71083800
Se    4.02702000   13.09873000    8.52642000      0.529766   -0.62286000    0.43689100
Se    4.48275000   13.02682000   18.58981000     -1.654480    1.44916600   -1.58541500
Se    4.54043000   18.77669000    8.69507000     -0.250681   -0.58351700   -0.26911800
Se    4.34653000   18.99269000   18.16162000      0.879684   -0.67377800    1.04982200
Se   10.26450000    1.24288000    8.36967000     -0.293219    1.01775300   -0.27556800
Se   10.04664000    1.40781000   18.40931000      0.907271    0.04253000    0.12518100
Se   10.04489000    7.65364000    8.16804000      1.144038   -1.12867200    0.97155800
Se   10.42800000    6.94329000   18.31896000      0.081799    0.32997600    0.40155400
Se   10.31428000   13.15252000    8.32013000      0.094416    0.49369100    0.14995600
Se    9.88091000   13.20401000   18.16066000      0.092513   -0.26462400   -0.08069900
Se   10.12201000   18.81451000    8.36564000      0.097342   -0.44622400    0.30128100
Se    9.95874000   18.72951000   18.34816000     -0.227744    0.18273000   -0.24893500
Se   16.21177000    1.54344000    9.07261000     -0.368505   -0.44107800   -0.69793800
Se   16.18944000    1.48898000   17.77313000      0.373147   -0.19175900    0.61162500
Se   15.72941000    7.07321000    8.54718000     -0.982104    1.25798300   -1.02799700
Se   16.04997000    7.22404000   18.01868000      0.300949    0.02200700    0.36141100
Se   16.10028000   12.88370000    8.52936000      0.508752    0.78300800    0.57769300
Se   16.04706000   12.99060000   18.17980000     -0.093506    0.73862900    0.05627700
Se   16.01586000   18.98375000    8.69870000      0.170899    0.11191600    0.00800500
Se   16.08829000   19.12610000   18.13274000      0.056060    0.37842600    0.27837000
Se   21.99362000    1.64859000    8.58592000     -0.235996    0.45638000   -0.14141100
Se   21.80886000    1.50747000   18.57036000     -0.170364    0.49385800   -0.73038800
Se   21.89539000    7.43760000    8.25952000     -0.938901    0.25263300   -0.50861500
Se   21.77130000    7.45027000   18.16768000      0.338030   -0.20329800    0.62253600
Se   21.91111000   13.15635000    8.63793000     -0.893311    1.24519800   -1.25216900
Se   21.77941000   13.13296000   18.21649000     -0.335229    0.78135200   -0.28284200
Se   21.65895000   18.89274000    8.51962000     -0.473226   -0.12528100   -0.53346900
Se   22.22250000   18.79937000   17.51007000     -0.853493   -0.45817700    0.54114500
Se    1.42963000    1.43786000    6.17907000     -0.635737   -1.14638100    0.81707500
Se    1.52039000    1.54125000   16.06464000     -0.037228   -1.14176000    0.64959600
Se    1.56672000    7.38642000    6.29638000     -0.472418    0.00924500   -0.67095500
Se    1.70262000    7.46232000   15.98161000      0.015502   -0.08381700    0.08913000
Se    1.23140000   12.93183000    5.98146000     -0.038544   -0.11362600    0.06236400
Se    1.62408000   13.04903000   16.07652000     -0.753445   -0.61569600    0.21835700
Se    1.39479000   18.94485000    6.35140000     -0.818584   -0.25247600    0.13906100
Se    1.82915000   18.74344000   15.93467000     -1.294235   -0.05068600    0.25398200
Se    7.12722000    1.36622000    6.09840000     -0.315642   -0.72217900    0.48547200
Se    7.33772000    1.35378000   15.73876000      0.070932    0.39450800   -0.27970200
Se    7.26123000    7.30194000    6.00370000      0.378958    0.52778600   -0.72331300
Se    7.09217000    7.35256000   15.93661000      1.106114   -0.06744100   -0.63414800
Se    7.36187000   12.93527000    5.86620000      0.521755    0.31180200   -0.13326400
Se    7.11667000   12.60805000   15.87725000      0.072620    0.68258900   -0.59236900
Se    7.00964000   18.37444000    5.84547000     -0.142280    0.76438600    0.14319300
Se    7.12492000   18.85385000   15.82894000     -0.747184   -1.01911300    0.99794500
Se   13.21258000    1.65359000    6.34454000     -0.572691    0.66934300   -0.36398600
Se   12.67634000    1.58186000   15.70115000      0.779398   -0.12220400    0.20384400
Se   13.32233000    7.47337000    6.15943000     -0.577720   -0.41102500    0.08119700
Se   12.85402000    7.13244000   15.90596000     -0.284370    1.33288200   -0.89578800
Se   13.43587000   13.42269000    6.67578000     -0.096426   -0.47121900   -0.74601700
Se   13.08981000   12.97452000   15.56946000     -0.493183    0.65753800   -0.03690300
Se   13.06261000   19.05888000    6.27152000      0.915231    0.17603500   -0.24342400
Se   12.94054000   19.34767000   16.00411000      0.400319   -0.72780200    0.07852900
Se   18.87810000    1.67601000    5.89577000     -0.127539   -1.15494100    0.66802900
Se   19.15446000    1.41928000   16.14804000      0.224387   -0.30236400    0.14500500
Se   18.87121000    7.20639000    5.88355000     -0.022756    0.61290400   -0.30055600
Se   18.89237000    7.53965000   16.05300000      0.635434    0.39167700   -0.85140800
Se   18.83790000   12.79749000    6.12982000      0.794328    0.04731200   -0.03412200
Se   18.55908000   13.03329000   16.03183000      0.497437    0.26275600    0.02038500
Se   18.78505000   18.97862000    5.87812000      0.274103   -1.04200900    0.72467600
Se   18.64159000   19.04985000   16.02797000     -0.551654   -0.28160900    0.11129100
Se    4.39736000    4.07867000    6.19375000     -0.280776    0.60834400    0.26516100
Se    4.48103000    4.58425000   15.78886000     -0.123293   -0.86428700   -0.16793800
Se    4.27656000    9.99722000    6.58920000     -0.379310    0.98966300    0.11795800
Se    4.61896000    9.99370000   15.97156000      1.213530    0.67087300    0.36876000
Se    3.98100000   15.84964000    6.37542000      1.202639   -0.87917600   -0.79310900
Se    4.44859000   15.78319000   15.96867000     -0.478571   -0.03135100   -0.08373100
Se    4.29334000   21.66412000    6.56730000      0.069421   -1.12643600   -1.33533600
Se    4.74066000   21.61674000   15.46523000     -0.268489    0.79787600    0.69073300
Se   10.15186000    4.15165000    6.45646000     -0.683438    0.46324300   -0.43644500
Se   10.06119000    4.36803000   15.68604000      0.108216    0.24553000   -0.31307700
Se   10.37370000   10.21036000    6.05874000      0.174727   -0.06911800   -0.30187500
Se    9.99101000    9.79966000   16.00136000      0.836453    0.10401700   -0.34160200
Se   10.01341000   16.11302000    5.92813000      0.302629   -0.65717800   -0.15164700
Se    9.86209000   15.98012000   15.68830000     -0.356427   -0.26039500    0.33893200
Se    9.82764000   21.46872000    6.06991000      0.894305   -0.58802700   -0.09857100
Se    9.99527000   21.72982000   16.05177000      1.245619   -1.42337500   -0.97350000
Se   16.33672000    4.32519000    5.62378000     -0.394601    0.58720900    0.69178700
Se   15.84142000    4.44326000   15.82297000      0.274441   -0.63110800   -0.14514600
Se   16.34526000   10.54699000    5.81860000     -0.595165   -0.87597800   -0.11749700
Se   16.01323000   10.15937000   15.87006000     -0.305992   -0.78853600   -0.64154900
Se   16.08671000   16.05880000    6.33446000      0.349115    0.51320000   -0.15908600
Se   15.70982000   16.32705000   15.90597000      1.294878   -1.70657200   -1.20870500
Se   16.15182000   21.85477000    6.46195000     -0.756789    0.31862200   -0.16987200
Se   15.80749000   22.08739000   15.34761000      0.025911    0.18218700    0.27926700
Se   21.77022000    4.23250000    6.19369000     -0.708965    0.05464800   -0.62651200
Se   21.85658000    4.42811000   15.96255000      0.723659    1.37964000    0.70292100
Se   22.04388000   10.26864000    5.57852000     -0.903644    0.06094100    0.98977600
Se   21.70222000   10.58899000   15.65904000      0.356327   -0.26337200    0.14321100
Se   21.70851000   15.54446000    6.19663000     -0.780796    0.44412500   -0.58847500
Se   21.64247000   15.98430000   15.71036000     -0.652961    0.08226800    0.18528700
Se   21.71214000   21.70348000    6.24302000      0.587164    0.37461100   -0.25842900
Se   21.79473000   21.97792000   15.30848000     -0.303189   -0.37361600    0.76159400
Se    4.53606000    1.44452000    3.81007000      0.004791   -0.66059100   -0.16349700
Se    3.97214000    1.65968000   13.27606000     -0.330576   -1.64137400    0.59317700
Se    4.58330000    7.42634000    3.68213000      0.015125   -0.81430100   -0.08029800
Se    4.55155000    6.95048000   13.41783000      0.129930    0.75604400    0.05594600
Se    4.35352000   12.79858000    3.44972000     -0.824402    0.19802800    0.90565200
Se    4.06429000   13.12568000   13.42442000      0.802628   -1.19837900   -0.83906800
Se    4.24433000   18.96869000    3.99729000      0.555874   -0.75784800   -0.67970700
Se    4.38553000   18.48808000   13.33507000      0.069892    1.03898300   -0.37470800
Se   10.67970000    1.43988000    4.53404000     -0.144245   -0.48007400   -1.07464500
Se   10.39656000    1.63451000   13.31280000     -0.637901   -0.61140700   -0.19617000
Se   10.62869000    7.26383000    3.63679000     -0.159908    0.78539700   -0.12841500
Se   10.40103000    7.32989000   13.57009000      0.160772    0.07940800   -0.34836800
Se   10.40981000   13.12384000    3.72672000      0.698390    0.07256700   -0.73367500
Se   10.18637000   12.89672000   13.68499000     -0.603401    0.01237200    0.21220300
Se   10.34361000   18.74955000    3.77512000     -0.170627    0.02016600   -0.05067700
Se   10.53870000   18.47699000   13.53277000     -0.896136    0.67521900    0.01536100
Se   16.01590000    1.11824000    3.68713000      0.085426    0.35438700   -0.00195700
Se   15.90994000    1.48393000   13.09689000     -1.031727   -0.54862400    0.81837500
Se   15.94648000    7.34004000    3.50160000     -0.646581   -0.72008700    1.02627500
Se   15.77253000    7.20834000   13.43914000     -0.012425   -0.11368500   -0.18296300
Se   15.56164000   13.24386000    3.42853000      0.386302    0.20352900    0.15422100
Se   15.83198000   12.89342000   13.34795000      0.346540    0.51257400    0.18620400
Se   15.52772000   18.92716000    3.49207000      0.650398    0.46526700   -0.13920500
Se   15.44250000   18.81969000   13.02483000     -0.059491    0.16628300    0.56242300
Se   22.08307000    1.59743000    3.49063000     -0.630815   -0.35573200    0.21541700
Se   22.00328000    1.67611000   13.58712000     -0.015035    0.53425300   -0.11685000
Se   21.88813000    7.36300000    3.42576000      0.280351    0.24795200    0.34987400
Se   22.33067000    7.52073000   13.67486000     -0.287309   -0.77556700    0.45446800
Se   21.47418000   12.97965000    3.07770000     -0.786500   -0.11797100    1.06539200
Se   21.43452000   13.19630000   13.44450000      0.695263   -0.28272200   -0.37884300
Se   22.07427000   18.98767000    3.91364000     -0.027752   -0.18276600   -0.28270900
Se   21.51473000   18.87533000   13.53596000      0.187165    0.67286600   -0.04835700
Se    1.61321000    4.22805000    3.90198000      0.072468    1.84454800   -0.13527800
Se    1.58585000    4.65921000   13.74257000     -0.316566    0.41868700   -0.24023200
Se    2.08367000   10.20601000    3.36531000     -0.569814   -0.01030100    0.36399100
Se    1.91087000   10.26575000   13.32126000     -0.170115   -0.35382600    0.12749800
Se    1.35175000   15.85025000    3.69479000     -0.399537   -0.35227400   -0.40953500
Se    1.13925000   16.08158000   13.93656000     -0.219903   -0.23287700   -0.80967500
Se    1.35567000   21.99733000    3.67585000      0.491061   -0.48987000    0.32305800
Se    1.64713000   21.66783000   13.70431000     -0.631237    0.78630800   -0.40102700
Se    7.29165000    4.23148000    3.90942000      1.112002    0.78920200    0.38352500
Se    7.06178000    4.27756000   13.12957000      0.739795    0.69051600    0.59270800
Se    7.60199000    9.97022000    3.36430000     -0.273916    0.74194500   -0.12465700
Se    7.64761000    9.95001000   12.60676000     -0.508517    0.62790500    0.48050400
Se    7.00089000   15.92287000    3.67989000     -0.141175   -0.83027900   -0.56158200
Se    7.03546000   15.80437000   13.21904000      0.363304   -0.53719200    0.39031000
Se    7.45314000   21.68484000    3.46901000     -0.375852   -0.81892300    0.07295200
Se    7.47352000   21.27368000   13.43134000     -0.601449    0.35802700   -0.53629100
Se   13.27359000    4.26663000    3.62510000     -0.025008   -0.56233500    0.03310200
Se   12.98116000    4.31352000   13.43831000     -0.352011    0.72722400   -0.91468900
Se   13.39578000   10.41559000    3.53079000     -0.545705   -0.81763800   -0.00612300
Se   13.04395000   10.46242000   13.25862000      0.201593   -1.41801400    0.17218900
Se   13.10692000   16.20260000    3.94468000     -0.866236    0.34690900   -0.82494800
Se   13.15064000   15.88525000   13.00208000     -0.270139   -0.41428100    0.68404800
Se   12.70929000   21.76375000    4.29373000      0.671409    0.47498500   -0.21924500
Se   12.34576000   21.83504000   13.41843000      1.389331   -0.42707400    0.29998400
Se   18.78690000    4.34564000    3.49070000     -0.189774   -0.05964700   -0.25605300
Se   18.51992000    4.12514000   13.96380000      0.694605   -0.15095800   -0.50143200
Se   19.29514000   10.14743000    3.07814000     -1.438129   -0.23237100   -0.04949400
Se   19.02374000    9.89883000   13.14776000     -0.325841    0.00467400    0.18153000
Se   18.61763000   16.04882000    3.71844000      0.062829   -0.17086900   -0.02462300
Se   18.70136000   15.85918000   13.38954000     -0.426105    1.02963100    0.12113500
Se   18.97422000   21.76580000    3.49935000     -0.482339    0.10040100   -0.14993600
Se   18.57404000   21.74226000   13.46811000     -0.654129    0.17033900   -0.49426300
