384
23.23808000 23.23808000 19.51320000
Ge    5.91918000    5.57520000    9.74757000     -0.351066   -0.34594300    0.09604500
Ge    6.06118000    5.77135000   19.48321000      0.163820   -0.78483000    0.18227800
Ge    5.60637000   11.45779000    9.62317000     -0.745958   -0.60190500   -0.61862200
Ge    5.93144000   11.53411000   19.34128000      0.100547    0.62145100    1.43445800
Ge    5.92905000   17.11549000    9.79883000     -0.815903   -1.05152500   -0.77590400
Ge    5.65302000   17.42907000    0.08680000      0.726739    0.83354900   -0.70878400
Ge    5.81968000    0.01301000    9.78076000      0.148490   -2.13521400    0.03226800
Ge    5.59358000   23.18310000    0.36608000     -0.277401    0.46846800   -1.26210900
Ge   11.73116000    6.14018000    9.56032000     -0.839077    1.07937100    0.28888400
Ge   11.82767000    5.47524000    0.30439000     -1.858725    0.54222700    0.24215700
Ge   11.78707000   11.76067000    9.61642000      0.604716   -1.21371500    0.43088000
Ge   11.42372000   11.82489000   19.22762000      1.398418    0.34779500    0.20190100
Ge   11.55113000   17.27827000    9.59864000     -0.403296    0.81079000    0.70990400
Ge   11.45012000   17.30862000    0.13241000     -0.596316    0.44164100    0.66759400
Ge   11.71943000    0.07524000    9.88847000     -0.481432   -0.69089600   -0.54580000
Ge   11.80753000   23.13894000   19.40470000     -0.268397   -0.37317000   -0.31234400
Ge   17.21529000    5.80628000    9.60339000      1.051419   -0.62041600    1.08735900
Ge   17.26069000    5.63580000   19.48822000     -0.290806    0.41272400   -1.08234100
Ge   17.76331000   11.69310000    9.76363000     -1.045404   -0.28773700   -0.21461500
Ge   17.29287000   11.52291000    0.17612000     -0.825688   -0.38236800   -1.29204700
Ge   17.35857000   17.37314000    9.62967000      0.409410   -1.03061000    1.06722100
Ge   17.40125000   17.69324000   19.46076000      0.020037   -0.10200200    0.51075600
Ge   17.80719000   23.19084000    9.80077000      0.258753    0.11063900    0.15154000
Ge   17.42099000   23.07791000   19.30380000      0.430726    0.95606700   -1.37552900
Ge   23.15663000    6.11776000    9.70616000     -0.349543   -0.99681300    0.20831700
Ge   23.10349000    5.89552000    0.08667000      0.657305   -0.20308000   -0.23372900
Ge   23.05476000   11.77842000   10.12605000      1.200302    0.16921000   -0.54909500
Ge   23.17222000   11.72551000   19.35931000      0.354756    0.53681200   -0.59597300
Ge   23.22540000   17.75920000    9.91781000     -1.585985   -1.98849400   -0.41874100
Ge   23.00768000   17.29632000   19.38379000     -0.370049    0.80365000   -0.61073500
Ge   23.20566000    0.05055000   10.04458000     -0.743152    0.97288600    0.12816500
Ge    0.11875000    0.08052000    0.02056000     -0.837518   -1.42973000   -0.06543300
Ge    3.07295000    5.81524000    7.21663000     -0.215138    0.27616700    0.96351100
Ge    3.01400000    5.82033000   17.17948000     -0.589596   -0.90419400    0.38010200
Ge    2.54440000   11.62690000    7.49694000     -0.063581   -0.93142100   -0.74938800
Ge    3.14455000   11.56714000   17.03371000     -0.107306    0.55252400    0.32651000
Ge    2.81509000   17.47398000    7.60674000     -0.064896    0.06331100    0.33164100
Ge    3.02017000   17.20512000   17.26578000     -0.025649    0.62198900   -0.85296800
Ge    2.86636000    0.03006000    7.59921000      0.562967   -0.29035300   -1.53710900
Ge    3.14322000   22.87331000   16.95149000     -0.425765    0.84958500    0.20554800
Ge    8.60310000    5.81836000    7.34460000      1.161156    1.44783500   -0.49442200
Ge    8.80189000    5.89512000   17.06670000     -0.306855   -0.66955000   -0.53464200
Ge    8.84477000   11.67567000    7.17186000     -0.460441   -0.24163700   -0.24635900
Ge    8.67312000   11.38464000   17.03774000      1.270846    0.58795800    0.23419300
Ge    8.56621000   17.29350000    7.34973000      0.359638    0.44896900   -0.51401900
Ge    8.47094000   17.29541000   17.12940000     -0.346910   -0.39954600    0.81362500
Ge    8.59795000   23.14192000    7.16830000      0.595344   -0.17244700   -0.33228700
Ge    8.71546000   23.21582000   17.23290000     -0.631749   -0.18601600   -1.16977300
Ge   14.62260000    5.56560000    7.03085000      0.563499    1.11448500   -0.59999100
Ge   14.35017000    5.82005000   16.89601000      0.918159   -0.39864600    2.08110600
Ge   14.80362000   11.43436000    7.26359000     -1.099971    0.82597700   -0.04053800
Ge   14.58035000   11.60698000   16.85974000      0.132114    0.85474400    0.70793900
Ge   14.50287000   17.65645000    7.38795000     -0.457313   -0.58822900    0.28890700
Ge   14.49258000   17.75211000   17.14685000     -1.776268    0.68528600    0.84463300
Ge   14.52694000    0.22817000    7.72606000      0.592923   -1.22013400    0.01262100
Ge   14.38495000    0.21918000   16.68028000      1.196642   -0.88101100    0.69297200
Ge   20.30996000    5.91646000    7.16442000      0.486549   -1.20265300    0.11611500
Ge   20.32623000    5.99416000   17.04728000     -0.347603   -0.04650200    0.00083200
Ge   20.71074000   11.49952000    7.30415000     -0.290767    1.07975200   -1.22097300
Ge   20.23987000   11.65398000   17.14027000     -0.534724    0.81265800    0.00241300
Ge   20.30406000   17.26791000    7.31229000     -0.101794   -0.50223900   -0.52206900
Ge   20.03645000   17.46698000   16.98033000      3.930879   -1.76722400    0.15495100
Ge   20.65275000    0.49090000    7.13701000     -1.208589   -1.73169400    0.16529300
Ge   20.77291000   23.14656000   17.17791000     -1.552328    0.17568700   -1.09912400
Ge    2.91129000    2.69921000    5.03204000      0.367332   -0.89582000    0.13844500
Ge    2.78260000    2.98444000   14.85264000      0.397736    1.04941000   -0.32803300
Ge    3.04850000    8.81530000    4.98568000      0.711199   -0.46356000   -0.49406800
Ge    3.33660000    8.57140000   14.67266000     -0.739868    0.45933100   -0.98031100
Ge    2.90849000   14.31895000    4.85391000     -0.983247   -0.00730400   -0.73844400
Ge    2.74699000   14.51430000   14.65339000     -0.546004    1.29563400    1.08843500
Ge    2.75591000   20.39555000    5.00291000      0.290827    0.68826400    1.33333000
Ge    3.16094000   20.09125000   14.63168000     -0.344221   -1.02454300    0.05251700
Ge    8.76469000    2.70659000    5.18111000     -0.081310    0.36620000   -0.84384300
Ge    8.68150000    2.86486000   14.35618000      0.001839   -0.50815700    0.63012500
Ge    9.00075000    8.71280000    4.72460000     -0.391589   -0.88886700    0.76313700
Ge    8.51401000    8.72016000   14.35073000      0.904509   -0.76987100    0.80219700
Ge    8.73798000   14.58910000    4.55143000      0.357085   -1.06335700    1.38820000
Ge    8.32507000   14.27862000   14.63378000      1.108933    0.91470000   -0.31516200
Ge    8.47827000   19.87577000    4.67082000      0.606626    0.89072100   -0.06960500
Ge    8.90311000   19.81276000   14.73397000      0.800573    0.60537500   -0.07802200
Ge   14.78970000    2.78524000    4.84803000     -1.230094   -0.32618800   -0.41258500
Ge   14.35173000    2.99566000   14.48937000      1.616372   -1.63809900    1.15924000
Ge   14.70316000    8.85566000    4.96973000      0.224106    0.45823500   -0.89891700
Ge   14.30492000    8.77787000   14.58265000      0.325713    0.91777700    0.27074800
Ge   14.60624000   14.73441000    4.96591000     -0.783648   -1.09578800    0.81261700
Ge   14.49733000   14.65539000   14.56551000      0.362646    0.51396300   -0.30674700
Ge   14.67568000   20.64949000    5.07664000     -1.496140   -0.88655300    0.10258200
Ge   14.24016000   20.50254000   14.37042000     -0.116730   -0.49599200    0.00200600
Ge   20.42489000    2.78189000    4.58173000      0.022547    2.04347600    0.26225300
Ge   20.40989000    2.87697000   14.89339000     -0.552931    1.08940500    0.10552100
Ge   20.36864000    8.80191000    4.63231000      0.266032   -0.29598800    0.02162900
Ge   20.59362000    8.77612000   14.52262000     -2.063043    0.88166600    0.89605500
Ge   20.09011000   14.32336000    4.66295000      0.424389    0.85568900    0.24074000
Ge   20.04201000   14.53996000   14.69258000      0.583661   -0.08364000    0.86795100
Ge   20.31575000   20.33623000    4.87454000      0.347409    0.41359800   -0.10371900
Ge   20.09144000   20.43734000   14.67067000      0.224203   -0.02347900    0.38113200
Ge    6.04314000    2.85665000    2.57758000     -1.459081   -0.09369700    0.59331200
Ge    5.59139000    2.80117000   12.08110000     -0.222001    0.12603600    0.04089100
Ge    5.93306000    8.71118000    2.08358000     -0.389250   -0.17824400    1.55267100
Ge    5.72601000    8.52096000   12.01349000      0.350355    0.50393400   -0.66959200
Ge    5.65241000   14.37866000    2.39489000      1.140945   -0.96759800   -0.12343900
Ge    5.61165000   14.34774000   11.96617000      0.168040    0.02385200    0.85550400
Ge    5.62462000   20.21166000    2.47259000      0.037637    1.79973300    0.25350700
Ge    5.73128000   19.98193000   12.09427000      0.996103    1.32795000    0.11441800
Ge   11.78532000    2.71361000    2.63119000     -1.079502   -0.57492500   -0.14890100
Ge   11.52171000    3.05052000   11.78513000      0.387569    0.73977900    1.38486900
Ge   11.79564000    8.94342000    2.27716000     -0.340114    0.33269900    0.94097400
Ge   11.58484000    8.81044000   12.12497000      0.900718    0.30338300   -0.13561800
Ge   11.74890000   14.83373000    2.37795000     -0.627855   -1.74281800    0.58633600
Ge   11.52375000   14.24303000   12.23301000     -0.180802    1.54874000    0.49003000
Ge   11.54301000   20.50738000    2.57697000     -1.271717   -0.75009600   -0.21426300
Ge   11.41395000   20.29668000   11.88956000     -1.427458    0.41644000    2.24619600
Ge   17.35975000    2.72376000    2.37961000     -0.444086    0.09955800   -0.79076500
Ge   17.67458000    2.68914000   12.17725000     -0.298083    1.72587500    0.42357000
Ge   17.45789000    8.72681000    2.30239000      0.097803   -0.62554600    0.24334200
Ge   17.41754000    8.45414000   12.12587000      0.010589   -0.26393200    0.16757800
Ge   17.00106000   14.65361000    2.46997000      2.504352   -0.15872000   -0.20670700
Ge   17.27551000   14.40083000   12.14714000      0.459755    0.95306900   -0.39834900
Ge   17.21374000   20.37052000    2.51856000      0.100034    0.79836400    0.05718900
Ge   17.40458000   20.19744000   12.27161000     -1.628196   -0.25121500   -0.94444300
Ge    0.38231000    3.06540000    2.38367000      0.582737   -0.24823700   -0.19332500
Ge   23.07297000    3.53059000   12.49897000     -0.293262   -0.81731800   -0.60117800
Ge    0.48190000    8.76558000    2.45558000     -0.644109   -0.04564200   -0.56824200
Ge    0.07099000    9.12218000   12.13620000      0.622373   -0.84466500    0.66064300
Ge   23.00034000   14.55957000    2.25776000      0.526752    0.76566800   -0.02506800
Ge   22.86714000   14.71233000   12.36368000      0.285031    0.88643400    0.74461300
Ge   23.15533000   20.50911000    2.33447000     -0.003175   -0.20690200    1.21339500
Ge   23.23631000   20.38081000   12.55838000     -1.630370    0.31400100    0.04707700
Se    1.64863000    1.41351000    1.00712000      0.860925    1.20700600    1.39619100
Se    1.21884000    1.79182000   11.25334000     -0.307082    0.02430800   -0.15934600
Se    1.60405000    6.79562000    1.59631000     -0.314689    0.36996700   -0.48735800
Se    1.34281000    7.31551000   11.12144000      0.518972    0.55223800   -0.21953700
Se    1.36344000   13.22280000    1.00119000     -0.185351    0.27846700    0.47501400
Se    1.28917000   13.26024000   11.51458000     -0.337025   -0.72466500   -0.87027700
Se    1.07622000   18.90562000    1.06394000      1.114795   -0.03207900    0.12233800
Se    1.27019000   19.24961000   11.00832000      1.939777    0.16162300    0.17636600
Se    7.22815000    1.21384000    1.53527000      0.968217   -0.74545300   -0.32111800
Se    7.19453000    1.45948000   10.91740000      0.894932    0.58953900    0.43515400
Se    7.55926000    7.30955000    1.13562000     -0.232218   -0.61434900   -0.46833600
Se    7.34045000    7.16246000   10.86378000     -0.634921   -0.02753100    0.00690600
Se    7.33020000   13.04082000    1.08581000     -0.476164    0.28682400    0.41664900
Se    7.09424000   12.90536000   10.66168000      0.096730    0.77581400    0.86117500
Se    7.11783000   18.95873000    1.23138000      0.491678   -0.42280600   -0.38281700
Se    7.31988000   18.47518000   10.97939000      0.512445    1.19147700    0.69547000
Se   13.21484000    1.14198000    1.29569000      0.008158    0.89179200    0.52735700
Se   13.19303000    1.50361000   11.06771000     -0.027383    0.18018900   -0.34050600
Se   13.06374000    7.41772000    1.09242000      0.987134   -0.90554600   -0.54859900
Se   13.22062000    7.57413000   10.82003000     -0.338413   -0.18001600    0.10825700
Se   13.03942000   13.34851000    0.81350000     -0.522056   -0.11121800    0.37840400
Se   13.08559000   13.01985000   11.18606000      1.259955   -0.70540500   -1.26698500
Se   12.85555000   18.98900000    1.31061000      0.354783   -0.52115500   -0.46859800
Se   12.86702000   18.99043000   10.84863000      1.569580   -1.44852300   -1.45155100
Se   18.73542000    1.36158000    1.01248000      0.846357    0.30748300    0.33437300
Se   19.29915000    1.27140000   11.33657000     -0.008908   -0.40819900   -0.79910700
Se   18.73463000    7.21807000    0.93574000      0.243017   -0.08143700    0.51844400
Se   18.93351000    7.04111000   10.94148000     -0.944541   -0.23419100   -0.40928600
Se   18.62486000   13.04270000    1.16353000      0.145033    1.46385000    1.40617100
Se   19.00655000   13.22983000   10.96116000      0.293041    0.31084900    0.35523300
Se   18.79276000   19.38461000    1.16817000      0.148352   -1.53400400   -0.55406400
Se   18.87313000   18.59381000   11.29059000     -0.434801   -0.16319200   -0.72303300
Se    4.64122000    4.11519000    1.17940000     -0.056566    0.62267700   -0.30799100
Se    4.13726000    4.16821000   10.77366000      0.828600    0.63642000   -0.10945800
Se    4.41240000   10.31450000    1.22468000      0.338667   -0.28913300   -0.22237400
Se    4.09658000   10.04808000   11.04699000      0.886590    0.26245400   -0.43617600
Se    4.40726000   16.22246000    1.60255000     -1.699368   -0.32277000    0.33961600
Se    4.17638000   15.94581000   11.02811000      0.330175    0.06873000   -0.57439400
Se    4.01654000   21.73726000    1.40123000      0.788141   -0.39457700    0.20794100
Se    4.43344000   22.04723000   11.46021000      0.785373   -0.87474800   -0.53141300
Se   10.01369000    4.06532000    1.38936000      1.722624    0.00283900    0.22692300
Se   10.20686000    5.01391000   11.25771000      0.872295   -0.56706000   -0.75960900
Se   10.25755000   10.15690000    0.87795000     -0.532499   -0.09708400    0.54433900
Se   10.29556000   10.42925000   10.97438000     -0.619697   -0.09128800   -0.60964700
Se    9.82809000   15.90196000    1.45839000      1.216236    0.43780900   -0.56820000
Se   10.30681000   16.04259000   11.30909000     -0.753346    0.17191800   -0.72027900
Se   10.13062000   21.93452000    1.09648000      0.493992   -0.50156600    0.64764800
Se   10.05376000   21.80277000   10.68708000     -0.585732    0.05518500    0.21966300
Se   15.79243000    3.99921000    0.96657000      0.389459    0.17068100    0.32884100
Se   16.04930000    4.15286000   11.01041000      0.739510    0.37279300   -0.30095800
Se   15.88118000    9.78552000    0.93424000     -0.396249    0.58218000    0.04685200
Se   16.27095000   10.13612000   10.90722000     -0.393082    0.33992300   -0.37497200
Se   15.84257000   15.92755000    0.95661000     -0.341568    1.27791300   -0.56252900
Se   15.78437000   15.70285000   10.73524000      0.844462    0.58468700   -0.03771700
Se   15.95067000   21.90337000    1.09790000     -0.983893   -0.65822700    0.64800400
Se   16.13730000   21.91516000   10.86212000      0.431264   -1.02746400    0.69634700
Se   21.88619000    4.13676000    1.24545000     -0.480342    0.70293600   -0.35467800
Se   21.53231000    5.05626000   11.33139000      0.626230   -0.58690500   -0.53684200
Se   22.12581000    9.91800000    0.89001000     -0.019836   -0.41209400    0.82715200
Se   21.56188000   10.32055000   11.19719000     -0.469135   -0.12754800    0.08627000
Se   21.38253000   16.18386000    1.24192000      0.902440   -0.48517400   -0.04148400
Se   21.56774000   16.31383000   11.11162000      0.688799    0.08365300   -0.13039500
Se   21.64499000   21.92680000    1.31278000      0.512610    0.58538800   -0.49665600
Se   21.69310000   21.69484000   11.15659000      0.521596    0.45105600   -0.03971300
Se    1.54412000    4.52254000    8.69648000     -0.277181    0.47360500   -0.11196400
Se    1.23715000    4.26003000   18.39048000      0.832467    1.28610400   -0.48927700
Se    1.19734000   10.13739000    8.85550000     -0.041268    0.76285500    0.03507600
Se    1.45181000   10.34831000   18.11602000     -0.118430   -0.98527600    0.26293400
Se    1.43534000   16.06454000    8.99710000     -0.245757    0.57759700   -0.19361300
Se    1.64757000   15.93719000   18.63144000     -0.696193   -0.70071700    0.47264600
Se    1.36978000   21.98509000    8.69715000     -0.851464   -1.67894700    0.71405900
Se    1.70226000   21.69148000   18.58253000     -0.674375   -0.09932300   -0.70375300
Se    7.74515000    4.29868000    8.83014000     -0.902893   -0.81003800    0.31577500
Se    7.28348000    4.27492000   17.99512000     -0.075604    0.55122400    0.35236300
Se    7.41954000   10.20362000    8.50282000     -0.212845    0.02730400    0.01710400
Se    7.20840000   10.01522000   18.20943000      0.063314   -1.04823200    0.02793100
Se    7.59879000   15.60396000    8.65342000     -1.036935    0.34006900    0.42021300
Se    6.96142000   15.77832000   18.53844000      0.783765    0.62273400   -0.71034300
Se    7.14067000   21.74608000    8.25271000     -1.024376   -0.34368900    1.36429100
Se    7.14050000   21.98808000   18.45184000     -0.525654   -0.98889100    0.34151200
Se   12.97306000    4.54251000    8.26742000     -0.841319   -1.53088400    0.53580800
Se   13.19725000    4.29518000   18.41934000      0.615593   -0.88952400   -0.52190700
Se   13.28173000   10.12816000    8.55671000     -0.231193   -0.03253900   -0.02054900
Se   13.05669000   10.30943000   18.11320000     -0.668805    0.15460400    0.21952700
Se   13.08470000   15.94041000    8.49473000      0.393507   -0.01900800   -0.19259500
Se   13.15129000   16.04328000   18.63451000      0.523968    0.49776000   -0.81788200
Se   13.01451000   21.72591000    8.71576000      0.881939    0.81387000   -0.42198100
Se   13.38404000   21.75537000   18.09136000     -0.667536    0.77608700    0.31197100
Se   18.60554000    4.50879000    8.14456000      0.340525   -0.06169900    0.12400800
Se   19.00884000    4.43612000   18.26878000     -0.315477   -0.23011600    0.21946900
Se   19.31332000   10.26364000    8.72486000      0.006636   -1.26477000   -0.24123600
Se   19.04657000   10.21177000   18.74458000      0.592849   -0.18590900   -0.92035500
Se   18.83172000   15.71340000    8.46920000     -0.229539    1.40676500    0.02907100
Se   18.91346000   16.08155000   18.44713000     -0.551530   -0.09193200    0.28466000
Se   19.10090000   21.92201000    8.27695000      0.428919    0.99916600    0.03071500
Se   19.36962000   21.70902000   18.43837000     -0.812582   -0.19813300    0.15088700
Se    4.15337000    1.33056000    8.94985000     -0.061753    1.90906800    0.09658700
Se    4.16975000    1.32896000   18.33742000      0.794554   -0.18410800    0.29073900
Se    4.84487000    7.14503000    8.33385000     -0.668902   -0.16124500   -0.33948600
Se    4.36964000    7.18494000   18.60380000      0.000450    0.21706400   -0.14583400
Se    4.06424000   13.06107000    8.47421000      0.933889    0.18924900    0.73695700
Se    4.37274000   13.03334000   18.58248000     -0.607512    0.32906000   -1.09810300
Se    4.56964000   18.76907000    8.69925000     -0.162290   -0.32777400   -0.36436200
Se    4.28560000   18.93109000   18.22591000      0.623234   -0.38620300    0.63438700
Se   10.19918000    1.21288000    8.38029000      0.179612    0.78486500    0.16158200
Se   10.09143000    1.36565000   18.40969000      1.101518    0.95790500    0.36543600
Se   10.19191000    7.63972000    8.28393000      0.121023   -1.53998700    0.24697300
Se   10.44335000    6.93954000   18.38630000      0.023250    0.48585200    0.26635100
Se   10.35567000   13.10029000    8.39763000     -0.472602    0.86927700   -0.27273100
Se    9.84154000   13.22819000   18.18595000     -0.037916   -0.71402100   -0.34832700
Se   10.11131000   18.82760000    8.41509000     -0.115105   -0.29754000    0.10244200
Se   10.03206000   18.69563000   18.36238000     -0.355867    0.27323600   -0.29031800
Se   16.12628000    1.52040000    9.06016000     -0.293059    0.27609800   -0.63140700
Se   16.14540000    1.50899000   17.81619000      0.053532   -0.93394600    0.39852500
Se   15.63247000    7.10986000    8.52500000      0.168354    0.88608900   -0.11290200
Se   15.93360000    7.23520000   17.98498000      0.519566   -0.61727600    0.74236400
Se   16.10537000   12.89487000    8.46871000      0.786039    0.71985300    0.85604100
Se   16.08291000   12.95327000   18.20073000     -0.347362    0.19877200   -0.11652000
Se   16.00104000   19.03937000    8.62540000      0.119481   -0.10871700    0.07605000
Se   16.05705000   19.26112000   18.21657000     -0.165494   -0.65359400    0.09968600
Se   22.01365000    1.71394000    8.57023000      0.249118   -0.06082000    0.60854300
Se   21.76559000    1.48020000   18.52754000      0.495850    0.86528500   -0.17231900
Se   21.84892000    7.42006000    8.15881000      0.158435    0.31092000    0.38282200
Se   21.79112000    7.43406000   18.21953000      0.473510    0.03506700    0.57257800
Se   21.90542000   13.17728000    8.60500000     -0.175625    0.23634700   -0.40096700
Se   21.80057000   13.26839000   18.12929000     -0.229460   -0.53713000    0.07603900
Se   21.58482000   18.89055000    8.57903000     -0.074385    0.14662800   -0.25712900
Se   22.13475000   18.75357000   17.55705000     -0.584698   -0.62043800    0.98846500
Se    1.41689000    1.38420000    6.26394000     -0.031234   -0.12338400    0.10357300
Se    1.48647000    1.46782000   16.07143000      0.294297   -0.71402500    0.30614900
Se    1.53835000    7.31399000    6.17402000     -0.032187    0.18882700   -0.44975100
Se    1.77248000    7.49361000   15.99236000     -0.887999   -0.37539200    0.40703800
Se    1.23319000   12.97784000    5.95846000      0.113083   -0.16688200    0.29663300
Se    1.56526000   13.04610000   16.11474000     -0.313451    0.09847800   -0.63211700
Se    1.39550000   18.88504000    6.41027000     -0.441629    0.52014700   -0.52085000
Se    1.65164000   18.72884000   15.99696000     -0.068095    0.56859500   -0.41391900
Se    7.09718000    1.40566000    6.11587000     -0.310036   -0.43166600    0.31404900
Se    7.30744000    1.30579000   15.74563000      0.319347    0.45333500   -0.18712600
Se    7.22700000    7.32593000    6.00882000      1.044885    0.00624200   -0.27275300
Se    7.17625000    7.34314000   15.89378000      0.168525   -0.17719600   -0.39695200
Se    7.29876000   12.99941000    5.91372000      0.739548    0.24399300   -0.04187400
Se    7.11246000   12.63999000   15.88702000     -0.895966    0.68842600   -0.88655600
Se    7.06309000   18.42599000    5.82583000     -0.833008    0.02860500    0.73525300
Se    7.14027000   18.81459000   15.89925000     -0.367004   -0.35160700    0.39227900
Se   13.21758000    1.69826000    6.37031000      0.286446   -0.04025200   -0.09688500
Se   12.73049000    1.55862000   15.78235000      0.496574    0.49999700   -0.50365600
Se   13.27236000    7.50019000    6.24491000     -0.145481   -0.47696800    0.00539200
Se   12.90306000    7.09238000   15.85260000     -1.618166    2.00013600   -1.44076500
Se   13.36352000   13.40767000    6.64749000      0.384767   -0.63837100   -0.77472700
Se   13.15043000   12.96097000   15.51458000     -0.501378    0.21708800    0.42686300
Se   13.05283000   19.08033000    6.28686000      0.363246    0.57128600   -0.56390900
Se   12.91169000   19.29143000   16.06446000      0.506979   -0.55647800   -0.12219100
Se   18.89669000    1.66469000    5.89801000      0.116984   -1.01895500    0.43675100
Se   19.10508000    1.38325000   16.11812000     -0.049769   -0.39031600    0.40394500
Se   18.94230000    7.27200000    5.86454000     -0.383678    0.69150200   -0.52655300
Se   18.91640000    7.63642000   16.00892000      0.717141   -0.04835100   -0.62048100
Se   18.82869000   12.86261000    6.01890000      0.609488   -0.58333400    0.48147200
Se   18.62150000   13.13210000   15.94906000      0.156934   -0.47158700    0.50618300
Se   18.82193000   18.86351000    5.87147000      0.099802   -0.93180500    0.82487200
Se   18.72311000   18.96079000   16.09035000     -1.840873    2.08547800   -1.54678000
Se    4.34627000    4.10637000    6.20319000      0.781040    0.47472200    0.38952100
Se    4.49307000    4.54495000   15.75669000     -0.671069   -0.46157200    0.23354700
Se    4.32588000   10.05880000    6.57041000     -0.688423    0.47275000   -0.25751000
Se    4.66428000   10.04397000   15.94340000      0.573450    0.30338000   -0.06307300
Se    3.95515000   15.83363000    6.36799000      1.553239   -0.29313000   -0.29764300
Se    4.35604000   15.73174000   15.97911000      0.295974    0.07894300   -0.11803900
Se    4.38880000   21.66381000    6.61283000     -1.124347   -0.16459600   -0.87118700
Se    4.68971000   21.68051000   15.41552000      0.216148    0.61060200    0.77523700
Se   10.12086000    4.10242000    6.43186000      0.158284    1.15030300    0.24300300
Se   10.07528000    4.42911000   15.58978000     -0.049765    0.13647200   -0.08386200
Se   10.42394000   10.25793000    6.01023000     -0.596193   -0.20012600   -0.20593800
Se   10.02590000    9.74822000   15.98961000      0.184632    0.35366700   -0.46245500
Se   10.02718000   16.17160000    5.87225000      0.489295   -0.60824700   -0.07032500
Se    9.84882000   16.01900000   15.72573000     -0.172417   -0.92212000   -0.23754700
Se    9.82071000   21.41183000    6.01274000      0.222502    0.07871500    0.31567100
Se   10.06621000   21.61829000   16.11440000      0.144714   -0.45344700   -0.34313400
Se   16.25769000    4.37991000    5.59880000      0.234971    0.88011100    0.91699900
Se   15.81732000    4.45459000   15.86680000      0.760212   -1.47849900   -0.90310900
Se   16.34204000   10.46540000    5.81685000     -0.213045   -0.90472100   -0.41281200
Se   16.08286000   10.16024000   15.91150000     -0.429748   -1.16599000   -0.99561800
Se   15.93360000   16.17528000    6.24209000      1.275166    0.17533700   -0.21847800
Se   15.78923000   16.41438000   15.86951000      0.981422   -1.52739100   -1.00194800
Se   16.07633000   21.83167000    6.47908000      0.295471    0.70554000    0.23632600
Se   15.85875000   22.00002000   15.31835000     -0.541131    0.25113600    0.27782000
Se   21.74400000    4.17204000    6.22816000     -0.283240    0.19619600   -0.64166700
Se   21.85505000    4.52236000   15.96938000     -0.319611   -0.19976600   -0.30909300
Se   22.01960000   10.27392000    5.53993000     -0.469586    0.32663500    1.13685500
Se   21.71923000   10.62244000   15.58821000      0.045864   -0.37263500    0.31692000
Se   21.73981000   15.45633000    6.26708000     -0.838072    0.60615200   -0.56312700
Se   21.72760000   15.95260000   15.68828000     -1.708425    0.48546300    0.54628000
Se   21.74744000   21.70022000    6.23711000      0.228238    0.66792400   -0.13281600
Se   21.77838000   22.02676000   15.30642000      0.383795   -0.11209400    0.71584500
Se    4.47313000    1.40654000    3.85922000      0.337899   -0.26811100   -0.47683700
Se    3.93591000    1.60723000   13.31793000      0.401460   -0.89902300    0.04837400
Se    4.66575000    7.33523000    3.68827000     -0.538958    0.37644600    0.06549200
Se    4.57599000    6.98043000   13.34465000     -0.211300    0.04145000    0.55062500
Se    4.30493000   12.69228000    3.51880000     -0.201839    1.15765100    0.41696200
Se    4.02648000   13.11470000   13.41775000      1.330162   -1.20958300   -1.08507300
Se    4.29960000   18.97598000    3.96893000      0.007099   -1.07996000   -0.20320300
Se    4.42475000   18.51118000   13.29678000     -0.761549   -0.27212200    0.45566900
Se   10.68927000    1.39557000    4.58221000     -0.090666    0.13292300   -1.33368100
Se   10.50593000    1.54875000   13.33635000     -1.012346    0.25980500   -0.13146000
Se   10.63352000    7.30886000    3.63896000     -0.259541    0.35373400   -0.11728500
Se   10.46795000    7.29766000   13.55433000     -0.996089    0.27305800    0.22486800
Se   10.37981000   13.06371000    3.73532000      0.412555    0.87786000   -0.62697100
Se   10.27612000   12.95661000   13.69977000     -1.158860   -0.15983200    0.51799000
Se   10.28529000   18.62796000    3.72631000      0.006865    1.04384800   -0.37842200
Se   10.53206000   18.49094000   13.49614000     -0.709511    0.93986900   -0.26913900
Se   16.06903000    1.18001000    3.67251000     -0.124978   -0.08528500    0.04351800
Se   15.90901000    1.52759000   13.12702000     -1.151856   -0.87610500    0.80002200
Se   15.91502000    7.33891000    3.59186000      0.571505   -0.04197800   -0.06829400
Se   15.69180000    7.25244000   13.39290000      0.431376   -0.17803100   -0.34593100
Se   15.59463000   13.12627000    3.51448000     -0.004757   -0.16071200    0.37835100
Se   15.90885000   13.00543000   13.38618000     -0.278237   -0.10538300    0.51212600
Se   15.51759000   19.02924000    3.54208000      0.507238    0.02339700   -0.00905400
Se   15.43025000   18.78992000   13.02504000      0.549386    1.16800800    0.29520200
Se   22.10591000    1.61280000    3.43511000     -0.489932   -1.31807000    0.37327200
Se   21.93025000    1.66291000   13.63132000      0.536409    0.30202200   -0.63873400
Se   21.93214000    7.43064000    3.47380000      0.421442   -0.28520300    0.08450200
Se   22.29766000    7.58081000   13.65259000      0.489204   -1.04721900   -0.13861500
Se   21.46444000   12.99250000    3.08060000     -0.307900    0.04884700    0.69895700
Se   21.48171000   13.17029000   13.49574000      0.708181   -0.72199400   -0.58286800
Se   22.04548000   19.03546000    3.90124000     -0.115800   -0.27170500   -0.25084900
Se   21.45653000   18.92391000   13.48100000      0.675597   -0.08560400   -0.27826000
Se    1.73788000    4.27838000    3.91135000     -0.781103    1.40528900   -0.97420500
Se    1.55645000    4.71037000   13.62091000      0.024670   -0.08718400    0.30344200
Se    2.02270000   10.36895000    3.38316000     -0.556740   -0.56770600    0.48350900
Se    1.88106000   10.21838000   13.27500000      0.325118   -0.14745300    0.47538100
Se    1.36350000   15.90715000    3.60076000      0.152954   -0.76822100    0.10806600
Se    1.19402000   16.13181000   13.87072000     -0.401304   -0.47191900   -0.75801700
Se    1.40657000   21.91529000    3.78763000     -0.154785   -0.26463100   -0.43786700
Se    1.64212000   21.66789000   13.67006000     -0.105678    0.23355500   -0.09881500
Se    7.34576000    4.22635000    3.87071000      0.870389    0.60370100    0.33069600
Se    7.04108000    4.26068000   13.24334000      0.526939    0.13513000    0.21540900
Se    7.58862000    9.97168000    3.32868000     -0.177273    1.09873800   -0.09835100
Se    7.59488000    9.97572000   12.58358000     -0.269464    0.41334700    0.67054300
Se    6.99137000   15.87958000    3.72777000     -0.499159   -0.01364900   -0.55892800
Se    7.05386000   15.85826000   13.24917000      0.285726   -1.00796900    0.29764700
Se    7.39534000   21.68825000    3.50221000     -0.589353   -0.99071900   -0.13647500
Se    7.45220000   21.23516000   13.54060000     -0.854646    0.36214500   -0.89252800
Se   13.20818000    4.28320000    3.61674000      0.634632   -0.03565800    0.32610000
Se   13.09637000    4.39008000   13.38379000     -1.765362    1.55238400   -1.87082200
Se   13.33478000   10.36053000    3.55933000     -0.330483   -0.16114800    0.01144500
Se   12.92235000   10.47909000   13.28757000      0.626264   -1.32752900    0.54811400
Se   13.04477000   16.14854000    3.98807000     -0.563395    0.58691600   -0.85632300
Se   13.14298000   15.90153000   13.00126000      0.032033   -0.24521700    0.91315000
Se   12.66910000   21.72629000    4.27762000      0.348364    0.91020500   -0.14505900
Se   12.41271000   21.85066000   13.43068000      0.725292   -0.24555900   -0.12495900
Se   18.73901000    4.30259000    3.43674000      0.784672   -0.16452400    0.39620400
Se   18.55728000    4.18647000   13.88828000      0.607078   -0.28097700   -0.35971700
Se   19.21797000   10.17957000    3.09947000     -0.731763    0.22190100    0.16864200
Se   18.92604000    9.95135000   13.08790000      0.625885    0.25118400    0.88642100
Se   18.63316000   16.14394000    3.69814000     -0.079123   -1.33196800   -0.02135800
Se   18.70427000   15.92334000   13.43323000     -0.820353    0.58629800   -0.53579700
Se   19.00145000   21.77080000    3.47240000     -0.383363    0.14975700    0.20127300
Se   18.58608000   21.82613000   13.47129000      0.270110   -0.02374700    0.33454200
